/*---------------------------------------------------------------------------*\
| =========                 |                                                 |
| \\      /  F ield         | OpenFOAM: The Open Source CFD Toolbox           |
|  \\    /   O peration     | Version:  2406                                  |
|   \\  /    A nd           | Website:  www.openfoam.com                      |
|    \\/     M anipulation  |                                                 |
\*---------------------------------------------------------------------------*/
Build  : _630d60de3b-20240620 OPENFOAM=2406 version=v2406
Arch   : "LSB;label=32;scalar=64"
Exec   : reactingCTDyMFoam
Date   : May 13 2025
Time   : 11:30:36
Host   : i9900
PID    : 64374
I/O    : uncollated
Case   : /home/tgd323/OpenFOAM/tgd323-v2406/run/H2/Phi=0_7_Xi=0_7
nProcs : 1
trapFpe: Floating point exception trapping enabled (FOAM_SIGFPE).
fileModificationChecking : Monitoring run-time modified files using timeStampMaster (fileModificationSkew 5, maxFileModificationPolls 20)
allowSystemOperations : Allowing user-supplied system call operations

// * * * * * * * * * * * * * * * * * * * * * * * * * * * * * * * * * * * * * //
Create time

Create mesh for time = 0


PIMPLE: Operating solver in PISO mode

Reading thermophysical properties

Selecting thermodynamics package 
{
    type            hePsiThermo;
    mixture         reactingMixture;
    transport       sutherland;
    thermo          janaf;
    energy          sensibleEnthalpy;
    equationOfState perfectGas;
    specie          specie;
}

Selecting chemistryReader foamChemistryReader
--> FOAM Warning : 
    From void Foam::multiComponentMixture<ThermoType>::correctMassFractions() [with ThermoType = Foam::sutherlandTransport<Foam::species::thermo<Foam::janafThermo<Foam::perfectGas<Foam::specie> >, Foam::sensibleEnthalpy> >]
    in file lnInclude/multiComponentMixture.C at line 78
    Sum of mass fractions is different from one for species 8(CH4 CH2 H2 O2 CO CO2 H2O N2)
    Max of mass fraction sum differs from 1 by 6.800005004e-11
Reading field U

Reading/calculating face flux field phi

Creating turbulence model.

Selecting turbulence model type laminar
Selecting laminar stress model Stokes
Creating reaction model

Selecting combustion model laminar
Selecting chemistry solver 
{
    solver          EulerImplicit;
    method          standard;
}

StandardChemistryModel: Number of species = 8 and reactions = 6
    using integrated reaction rate
Creating field dpdt

Creating field kinetic energy K

No MRF models present

Creating finite volume options from "constant/fvOptions"

Selecting finite volume options type scalarSemiImplicitSource
    Source: energySource
    - selecting cells using cellSet ignition
    - selected 18960 cell(s) with volume 1.896e-08
Reading/calculating face velocity rhoUf

In thermoCorrectByCantera.h
Before bnds
Before patch loop
Ended thermoCorrect
Courant Number mean: 0 max: 0

Starting time loop

wallHeatFlux wallHeatFlux1:
    processing all (1) wall patches

Courant Number mean: 0 max: 0
deltaT = 1.2e-05
---NormalisedGradT: min = min(normalisedGradT) [0 0 0 0 0 0 0] 0   max = max(normalisedGradT) [0 0 0 0 0 0 0] 1
Time = 1.2e-05

Before mesh update
Time before mesh update
ExecutionTime = 2.02 s  ClockTime = 2 s

Time after mesh update
ExecutionTime = 2.02 s  ClockTime = 2 s

After mesh update: 0
diagonal:  Solving for rho, Initial residual = 0, Final residual = 0, No Iterations 0
PIMPLE: iteration 1
DILUPBiCGStab:  Solving for Ux, Initial residual = 0.9999998324, Final residual = 0.0008350383911, No Iterations 1
DILUPBiCGStab:  Solving for Uy, Initial residual = 0.9999998349, Final residual = 0.0008658543925, No Iterations 1
DILUPBiCGStab:  Solving for Uz, Initial residual = 0.9999998166, Final residual = 0.0009586930753, No Iterations 1
Before reaction->correct():
Time before reaction
ExecutionTime = 2.78 s  ClockTime = 2 s

Time after reaction
ExecutionTime = 3.53 s  ClockTime = 3 s

Done reaction->correct():
DILUPBiCGStab:  Solving for CH4, Initial residual = 0.999995405, Final residual = 0.0007414005863, No Iterations 1
DILUPBiCGStab:  Solving for CH2, Initial residual = 0.9999997197, Final residual = 0.0002353138589, No Iterations 1
DILUPBiCGStab:  Solving for H2, Initial residual = 0.999994287, Final residual = 0.005967371038, No Iterations 1
DILUPBiCGStab:  Solving for O2, Initial residual = 0.9999998725, Final residual = 0.0006583037588, No Iterations 1
DILUPBiCGStab:  Solving for CO, Initial residual = 0.001038739166, Final residual = 2.028927013e-07, No Iterations 1
DILUPBiCGStab:  Solving for CO2, Initial residual = 0, Final residual = 0, No Iterations 0
DILUPBiCGStab:  Solving for H2O, Initial residual = 0.9999786854, Final residual = 0.0002307306115, No Iterations 1
 In EEqn.H: min/max(T) = 300, 300.0001251
   Min Q:-2.343435544
   Max Q:0
  Before: min/max(he) = 1868.605409, 2105.244346
DILUPBiCGStab:  Solving for h, Initial residual = 1, Final residual = 0.001435187907, No Iterations 1
After: min/max(he) = 2096.861349, 8988.383051
In thermoCorrectByCantera.h
Before bnds
Before patch loop
Ended thermoCorrect
min/max(T) = 299.9927264, 306.0450005
Min Q:-2.343435544
Max Q:0
DICPCG:  Solving for p, Initial residual = 0.9999999992, Final residual = 0.008803986099, No Iterations 93
diagonal:  Solving for rho, Initial residual = 0, Final residual = 0, No Iterations 0
time step continuity errors : sum local = 1.397561148e-05, global = -1.331727096e-05, cumulative = -1.331727096e-05
DICPCG:  Solving for p, Initial residual = 0.05269577732, Final residual = 9.818376005e-06, No Iterations 114
diagonal:  Solving for rho, Initial residual = 0, Final residual = 0, No Iterations 0
time step continuity errors : sum local = 1.330794295e-05, global = -1.330794295e-05, cumulative = -2.662521391e-05
ExecutionTime = 8.08 s  ClockTime = 8 s

    min/max/integ(Walls) = -4008.822306, 4.928377082, -0.01263102216
Courant Number mean: 0.01645858069 max: 0.09819048871
deltaT = 1.44e-05
---NormalisedGradT: min = min(normalisedGradT) [0 0 0 0 0 0 0] 0   max = max(normalisedGradT) [0 0 0 0 0 0 0] 1
Time = 2.64e-05

Before mesh update
Time before mesh update
ExecutionTime = 8.23 s  ClockTime = 8 s

Time after mesh update
ExecutionTime = 8.23 s  ClockTime = 8 s

After mesh update: 0
diagonal:  Solving for rho, Initial residual = 0, Final residual = 0, No Iterations 0
PIMPLE: iteration 1
DILUPBiCGStab:  Solving for Ux, Initial residual = 0.4901193101, Final residual = 0.0001646452927, No Iterations 1
DILUPBiCGStab:  Solving for Uy, Initial residual = 0.376676684, Final residual = 0.0001942533491, No Iterations 1
DILUPBiCGStab:  Solving for Uz, Initial residual = 0.335002115, Final residual = 0.0002452042031, No Iterations 1
Before reaction->correct():
Time before reaction
ExecutionTime = 8.92 s  ClockTime = 8 s

Time after reaction
ExecutionTime = 9.6 s  ClockTime = 9 s

Done reaction->correct():
DILUPBiCGStab:  Solving for CH4, Initial residual = 0.06760707426, Final residual = 9.063774966e-05, No Iterations 1
DILUPBiCGStab:  Solving for CH2, Initial residual = 0.9998089331, Final residual = 0.001101357837, No Iterations 1
DILUPBiCGStab:  Solving for H2, Initial residual = 0.155148562, Final residual = 0.001124709422, No Iterations 1
DILUPBiCGStab:  Solving for O2, Initial residual = 0.06485982547, Final residual = 7.995428849e-05, No Iterations 1
DILUPBiCGStab:  Solving for CO, Initial residual = 0.001106606382, Final residual = 1.304673795e-06, No Iterations 1
DILUPBiCGStab:  Solving for CO2, Initial residual = 1.795720776e-27, Final residual = 1.795720776e-27, No Iterations 0
DILUPBiCGStab:  Solving for H2O, Initial residual = 0.9997938557, Final residual = 0.001134082851, No Iterations 1
 In EEqn.H: min/max(T) = 299.9927264, 306.0450005
   Min Q:-4.375102133
   Max Q:0
  Before: min/max(he) = 2096.861349, 8988.383051
DILUPBiCGStab:  Solving for h, Initial residual = 0.2882690614, Final residual = 0.0008870323973, No Iterations 1
After: min/max(he) = 2105.2115, 17567.5809
In thermoCorrectByCantera.h
Before bnds
Before patch loop
Ended thermoCorrect
min/max(T) = 300, 313.570702
Min Q:-4.375102133
Max Q:0
DICPCG:  Solving for p, Initial residual = 0.9668534441, Final residual = 0.007683202343, No Iterations 91
diagonal:  Solving for rho, Initial residual = 0, Final residual = 0, No Iterations 0
time step continuity errors : sum local = 1.778274936e-05, global = 2.98044802e-08, cumulative = -2.659540943e-05
DICPCG:  Solving for p, Initial residual = 0.1542700256, Final residual = 9.734207722e-06, No Iterations 136
diagonal:  Solving for rho, Initial residual = 0, Final residual = 0, No Iterations 0
time step continuity errors : sum local = 1.457324472e-08, global = 7.886337586e-12, cumulative = -2.659540155e-05
ExecutionTime = 14.24 s  ClockTime = 14 s

    min/max/integ(Walls) = -8643.326453, -6.542056116, -0.03802710774
Courant Number mean: 0.03437841153 max: 0.1410885817
deltaT = 1.728e-05
---NormalisedGradT: min = min(normalisedGradT) [0 0 0 0 0 0 0] 1.172984366e-06   max = max(normalisedGradT) [0 0 0 0 0 0 0] 1
Time = 4.368e-05

Before mesh update
Time before mesh update
ExecutionTime = 14.39 s  ClockTime = 14 s

Time after mesh update
ExecutionTime = 14.39 s  ClockTime = 14 s

After mesh update: 0
diagonal:  Solving for rho, Initial residual = 0, Final residual = 0, No Iterations 0
PIMPLE: iteration 1
DILUPBiCGStab:  Solving for Ux, Initial residual = 0.3746794919, Final residual = 0.0001012682082, No Iterations 1
DILUPBiCGStab:  Solving for Uy, Initial residual = 0.287142794, Final residual = 0.0001559299693, No Iterations 1
DILUPBiCGStab:  Solving for Uz, Initial residual = 0.07114828768, Final residual = 6.467024685e-05, No Iterations 1
Before reaction->correct():
Time before reaction
ExecutionTime = 15.05 s  ClockTime = 15 s

Time after reaction
ExecutionTime = 15.73 s  ClockTime = 15 s

Done reaction->correct():
DILUPBiCGStab:  Solving for CH4, Initial residual = 0.08293900175, Final residual = 0.0001649945081, No Iterations 1
DILUPBiCGStab:  Solving for CH2, Initial residual = 0.9557312569, Final residual = 0.002001260837, No Iterations 1
DILUPBiCGStab:  Solving for H2, Initial residual = 0.1730185675, Final residual = 0.0016657665, No Iterations 1
DILUPBiCGStab:  Solving for O2, Initial residual = 0.07992233577, Final residual = 0.0001474789911, No Iterations 1
DILUPBiCGStab:  Solving for CO, Initial residual = 0.001398620811, Final residual = 3.84609469e-06, No Iterations 1
DILUPBiCGStab:  Solving for CO2, Initial residual = 1.312811716e-26, Final residual = 1.312811716e-26, No Iterations 0
DILUPBiCGStab:  Solving for H2O, Initial residual = 0.9467397487, Final residual = 0.002219346619, No Iterations 1
 In EEqn.H: min/max(T) = 300, 313.570702
   Min Q:-9.170699334
   Max Q:0
  Before: min/max(he) = 2105.2115, 17567.5809
DILUPBiCGStab:  Solving for h, Initial residual = 0.1801240166, Final residual = 0.0008408529006, No Iterations 1
After: min/max(he) = 2105.219504, 27953.90031
In thermoCorrectByCantera.h
Before bnds
Before patch loop
Ended thermoCorrect
min/max(T) = 300, 322.6687313
Min Q:-9.170699334
Max Q:0
DICPCG:  Solving for p, Initial residual = 0.6952286599, Final residual = 0.006887179497, No Iterations 92
diagonal:  Solving for rho, Initial residual = 0, Final residual = 0, No Iterations 0
time step continuity errors : sum local = 1.245694564e-05, global = 2.32032448e-08, cumulative = -2.65721983e-05
DICPCG:  Solving for p, Initial residual = 0.1583347187, Final residual = 9.759280923e-06, No Iterations 136
diagonal:  Solving for rho, Initial residual = 0, Final residual = 0, No Iterations 0
time step continuity errors : sum local = 5.694943013e-09, global = 6.165090901e-12, cumulative = -2.657219214e-05
ExecutionTime = 20.48 s  ClockTime = 20 s

    min/max/integ(Walls) = -13757.3454, -35.91424349, -0.07031729645
Courant Number mean: 0.04196945376 max: 0.1780583611
deltaT = 2.0736e-05
---NormalisedGradT: min = min(normalisedGradT) [0 0 0 0 0 0 0] 1.808009313e-06   max = max(normalisedGradT) [0 0 0 0 0 0 0] 1
Time = 6.4416e-05

Before mesh update
Time before mesh update
ExecutionTime = 20.65 s  ClockTime = 20 s

Time after mesh update
ExecutionTime = 20.65 s  ClockTime = 20 s

After mesh update: 0
diagonal:  Solving for rho, Initial residual = 0, Final residual = 0, No Iterations 0
PIMPLE: iteration 1
DILUPBiCGStab:  Solving for Ux, Initial residual = 0.1558242607, Final residual = 9.86919157e-05, No Iterations 1
DILUPBiCGStab:  Solving for Uy, Initial residual = 0.2079578504, Final residual = 0.0001644375475, No Iterations 1
DILUPBiCGStab:  Solving for Uz, Initial residual = 0.01369735531, Final residual = 1.895683364e-05, No Iterations 1
Before reaction->correct():
Time before reaction
ExecutionTime = 21.32 s  ClockTime = 21 s

Time after reaction
ExecutionTime = 22.02 s  ClockTime = 22 s

Done reaction->correct():
DILUPBiCGStab:  Solving for CH4, Initial residual = 0.09879838346, Final residual = 0.0002753379823, No Iterations 1
DILUPBiCGStab:  Solving for CH2, Initial residual = 0.8616982726, Final residual = 0.003599416664, No Iterations 1
DILUPBiCGStab:  Solving for H2, Initial residual = 0.1816246481, Final residual = 0.002240318266, No Iterations 1
DILUPBiCGStab:  Solving for O2, Initial residual = 0.09566949081, Final residual = 0.0002472487075, No Iterations 1
DILUPBiCGStab:  Solving for CO, Initial residual = 0.002629748668, Final residual = 1.205134019e-05, No Iterations 1
DILUPBiCGStab:  Solving for CO2, Initial residual = 2.727434834e-25, Final residual = 2.727434834e-25, No Iterations 0
DILUPBiCGStab:  Solving for H2O, Initial residual = 0.838076437, Final residual = 0.003948960646, No Iterations 1
 In EEqn.H: min/max(T) = 300, 322.6687313
   Min Q:-21.38955934
   Max Q:0
  Before: min/max(he) = 2105.219504, 27953.90031
DILUPBiCGStab:  Solving for h, Initial residual = 0.135442733, Final residual = 0.0008342038816, No Iterations 1
After: min/max(he) = 2105.226427, 40787.44522
In thermoCorrectByCantera.h
Before bnds
Before patch loop
Ended thermoCorrect
min/max(T) = 300, 333.8907679
Min Q:-21.38955934
Max Q:0
DICPCG:  Solving for p, Initial residual = 0.6595608354, Final residual = 0.00620849621, No Iterations 88
diagonal:  Solving for rho, Initial residual = 0, Final residual = 0, No Iterations 0
time step continuity errors : sum local = 7.689252614e-06, global = 1.124989241e-09, cumulative = -2.657106715e-05
DICPCG:  Solving for p, Initial residual = 0.05413057121, Final residual = 9.736139012e-06, No Iterations 144
diagonal:  Solving for rho, Initial residual = 0, Final residual = 0, No Iterations 0
time step continuity errors : sum local = 1.319926808e-08, global = -9.511818908e-12, cumulative = -2.657107666e-05
ExecutionTime = 26.73 s  ClockTime = 26 s

    min/max/integ(Walls) = -19458.31771, -75.92613523, -0.1057428257
Courant Number mean: 0.03377582447 max: 0.2363964277
deltaT = 2.48832e-05
---NormalisedGradT: min = min(normalisedGradT) [0 0 0 0 0 0 0] 2.926353932e-08   max = max(normalisedGradT) [0 0 0 0 0 0 0] 1
Time = 8.92992e-05

Before mesh update
Time before mesh update
ExecutionTime = 26.9 s  ClockTime = 26 s

Time after mesh update
ExecutionTime = 26.9 s  ClockTime = 26 s

After mesh update: 0
diagonal:  Solving for rho, Initial residual = 0, Final residual = 0, No Iterations 0
PIMPLE: iteration 1
DILUPBiCGStab:  Solving for Ux, Initial residual = 0.5750766867, Final residual = 0.0003579098144, No Iterations 1
DILUPBiCGStab:  Solving for Uy, Initial residual = 0.1443586005, Final residual = 0.0002042340998, No Iterations 1
DILUPBiCGStab:  Solving for Uz, Initial residual = 0.007311041238, Final residual = 1.895408888e-05, No Iterations 1
Before reaction->correct():
Time before reaction
ExecutionTime = 27.61 s  ClockTime = 27 s

Time after reaction
ExecutionTime = 28.32 s  ClockTime = 28 s

Done reaction->correct():
DILUPBiCGStab:  Solving for CH4, Initial residual = 0.1213004644, Final residual = 0.0004653871138, No Iterations 1
DILUPBiCGStab:  Solving for CH2, Initial residual = 0.7463648282, Final residual = 0.005974005591, No Iterations 1
DILUPBiCGStab:  Solving for H2, Initial residual = 0.1840536214, Final residual = 0.003050896945, No Iterations 1
DILUPBiCGStab:  Solving for O2, Initial residual = 0.11841884, Final residual = 0.0004224197592, No Iterations 1
DILUPBiCGStab:  Solving for CO, Initial residual = 0.009187009357, Final residual = 5.938733247e-05, No Iterations 1
DILUPBiCGStab:  Solving for CO2, Initial residual = 1.35186013e-23, Final residual = 1.35186013e-23, No Iterations 0
DILUPBiCGStab:  Solving for H2O, Initial residual = 0.7287211653, Final residual = 0.005760351531, No Iterations 1
 In EEqn.H: min/max(T) = 300, 333.8907679
   Min Q:-56.93115028
   Max Q:0
  Before: min/max(he) = 2105.226427, 40787.44522
DILUPBiCGStab:  Solving for h, Initial residual = 0.1078036352, Final residual = 0.0008467946036, No Iterations 1
After: min/max(he) = 2105.232245, 56729.46774
In thermoCorrectByCantera.h
Before bnds
Before patch loop
Ended thermoCorrect
min/max(T) = 300, 347.800287
Min Q:-56.93115028
Max Q:0
DICPCG:  Solving for p, Initial residual = 0.3291883905, Final residual = 0.002813120425, No Iterations 92
diagonal:  Solving for rho, Initial residual = 0, Final residual = 0, No Iterations 0
time step continuity errors : sum local = 4.776725447e-06, global = 4.740737861e-10, cumulative = -2.657060258e-05
DICPCG:  Solving for p, Initial residual = 0.01878499924, Final residual = 9.167136472e-06, No Iterations 145
diagonal:  Solving for rho, Initial residual = 0, Final residual = 0, No Iterations 0
time step continuity errors : sum local = 1.322990952e-08, global = -2.503935022e-11, cumulative = -2.657062762e-05
ExecutionTime = 32.98 s  ClockTime = 33 s

    min/max/integ(Walls) = -25778.63364, -81.41116412, -0.1387519776
Courant Number mean: 0.02085304802 max: 0.3212494948
deltaT = 2.985984e-05
---NormalisedGradT: min = min(normalisedGradT) [0 0 0 0 0 0 0] 7.185727898e-07   max = max(normalisedGradT) [0 0 0 0 0 0 0] 1
Time = 0.000119159

Before mesh update
Time before mesh update
ExecutionTime = 33.14 s  ClockTime = 33 s

Time after mesh update
ExecutionTime = 33.14 s  ClockTime = 33 s

After mesh update: 0
diagonal:  Solving for rho, Initial residual = 0, Final residual = 0, No Iterations 0
PIMPLE: iteration 1
DILUPBiCGStab:  Solving for Ux, Initial residual = 0.7011460076, Final residual = 0.0005986873563, No Iterations 1
DILUPBiCGStab:  Solving for Uy, Initial residual = 0.09410331331, Final residual = 0.0002736125439, No Iterations 1
DILUPBiCGStab:  Solving for Uz, Initial residual = 0.00992574126, Final residual = 3.169695963e-05, No Iterations 1
Before reaction->correct():
Time before reaction
ExecutionTime = 33.81 s  ClockTime = 33 s

Time after reaction
ExecutionTime = 34.49 s  ClockTime = 34 s

Done reaction->correct():
DILUPBiCGStab:  Solving for CH4, Initial residual = 0.1447183355, Final residual = 0.000771603255, No Iterations 1
DILUPBiCGStab:  Solving for CH2, Initial residual = 0.6511314507, Final residual = 0.007933569663, No Iterations 1
DILUPBiCGStab:  Solving for H2, Initial residual = 0.1949995185, Final residual = 0.004383926588, No Iterations 1
DILUPBiCGStab:  Solving for O2, Initial residual = 0.1426310228, Final residual = 0.0007131454473, No Iterations 1
DILUPBiCGStab:  Solving for CO, Initial residual = 0.05068873827, Final residual = 0.0004625404037, No Iterations 1
DILUPBiCGStab:  Solving for CO2, Initial residual = 1.20303336e-21, Final residual = 1.20303336e-21, No Iterations 0
DILUPBiCGStab:  Solving for H2O, Initial residual = 0.5848625543, Final residual = 0.006522563454, No Iterations 1
 In EEqn.H: min/max(T) = 300, 347.800287
   Min Q:-174.876557
   Max Q:0
  Before: min/max(he) = 2105.232245, 56729.46774
DILUPBiCGStab:  Solving for h, Initial residual = 0.08778899563, Final residual = 0.0009102379757, No Iterations 1
After: min/max(he) = 2105.237002, 76679.56506
In thermoCorrectByCantera.h
Before bnds
Before patch loop
Ended thermoCorrect
min/max(T) = 300, 365.1580286
Min Q:-174.876557
Max Q:0
DICPCG:  Solving for p, Initial residual = 0.3740330207, Final residual = 0.003444359021, No Iterations 103
diagonal:  Solving for rho, Initial residual = 0, Final residual = 0, No Iterations 0
time step continuity errors : sum local = 5.179811474e-06, global = -1.809824849e-08, cumulative = -2.658872587e-05
DICPCG:  Solving for p, Initial residual = 0.05845758239, Final residual = 9.128264249e-06, No Iterations 148
diagonal:  Solving for rho, Initial residual = 0, Final residual = 0, No Iterations 0
time step continuity errors : sum local = 1.05659033e-08, global = 1.63849664e-12, cumulative = -2.658872423e-05
ExecutionTime = 39.28 s  ClockTime = 39 s

    min/max/integ(Walls) = -32746.96773, -86.34624939, -0.163703413
Courant Number mean: 0.02725598674 max: 0.4191762837
deltaT = 3.5831808e-05
---NormalisedGradT: min = min(normalisedGradT) [0 0 0 0 0 0 0] 1.962995483e-07   max = max(normalisedGradT) [0 0 0 0 0 0 0] 1
Time = 0.000154991

Before mesh update
Time before mesh update
ExecutionTime = 39.44 s  ClockTime = 39 s

Time after mesh update
ExecutionTime = 39.44 s  ClockTime = 39 s

After mesh update: 0
diagonal:  Solving for rho, Initial residual = 0, Final residual = 0, No Iterations 0
PIMPLE: iteration 1
DILUPBiCGStab:  Solving for Ux, Initial residual = 0.4579542934, Final residual = 0.0009109473666, No Iterations 1
DILUPBiCGStab:  Solving for Uy, Initial residual = 0.07376968764, Final residual = 0.000405666675, No Iterations 1
DILUPBiCGStab:  Solving for Uz, Initial residual = 0.01655163198, Final residual = 6.712005137e-05, No Iterations 1
Before reaction->correct():
Time before reaction
ExecutionTime = 40.07 s  ClockTime = 40 s

Time after reaction
ExecutionTime = 40.75 s  ClockTime = 40 s

Done reaction->correct():
DILUPBiCGStab:  Solving for CH4, Initial residual = 0.1562232825, Final residual = 0.001240290845, No Iterations 1
DILUPBiCGStab:  Solving for CH2, Initial residual = 0.5008408908, Final residual = 0.007676701465, No Iterations 1
DILUPBiCGStab:  Solving for H2, Initial residual = 0.1862621672, Final residual = 0.006022425239, No Iterations 1
DILUPBiCGStab:  Solving for O2, Initial residual = 0.1552032743, Final residual = 0.001171856744, No Iterations 1
DILUPBiCGStab:  Solving for CO, Initial residual = 0.2742140666, Final residual = 0.003497714712, No Iterations 1
DILUPBiCGStab:  Solving for CO2, Initial residual = 1.958582724e-19, Final residual = 1.958582724e-19, No Iterations 0
DILUPBiCGStab:  Solving for H2O, Initial residual = 0.5335417749, Final residual = 0.007677373728, No Iterations 1
 In EEqn.H: min/max(T) = 300, 365.1580286
   Min Q:-625.8680045
   Max Q:0
  Before: min/max(he) = 2105.237002, 76679.56506
DILUPBiCGStab:  Solving for h, Initial residual = 0.07502513277, Final residual = 0.0009777452754, No Iterations 1
After: min/max(he) = 2105.240531, 101791.7018
In thermoCorrectByCantera.h
Before bnds
Before patch loop
Ended thermoCorrect
min/max(T) = 300, 386.9288606
Min Q:-625.8680045
Max Q:0
DICPCG:  Solving for p, Initial residual = 0.4779204394, Final residual = 0.004636755274, No Iterations 98
diagonal:  Solving for rho, Initial residual = 0, Final residual = 0, No Iterations 0
time step continuity errors : sum local = 6.127730699e-06, global = -5.533166645e-10, cumulative = -2.658927755e-05
DICPCG:  Solving for p, Initial residual = 0.1244412538, Final residual = 9.309718107e-06, No Iterations 187
diagonal:  Solving for rho, Initial residual = 0, Final residual = 0, No Iterations 0
time step continuity errors : sum local = 5.329586672e-09, global = -1.027257037e-12, cumulative = -2.658927858e-05
ExecutionTime = 45.84 s  ClockTime = 45 s

    min/max/integ(Walls) = -40418.1161, -51.7167909, -0.179781168
Courant Number mean: 0.03727252538 max: 0.5133050041
deltaT = 4.281241558e-05
---NormalisedGradT: min = min(normalisedGradT) [0 0 0 0 0 0 0] 1.523092404e-07   max = max(normalisedGradT) [0 0 0 0 0 0 0] 1
Time = 0.000197803

Before mesh update
Time before mesh update
ExecutionTime = 46 s  ClockTime = 46 s

Time after mesh update
ExecutionTime = 46 s  ClockTime = 46 s

After mesh update: 0
diagonal:  Solving for rho, Initial residual = 0, Final residual = 0, No Iterations 0
PIMPLE: iteration 1
DILUPBiCGStab:  Solving for Ux, Initial residual = 0.1215212953, Final residual = 0.0005769385117, No Iterations 1
DILUPBiCGStab:  Solving for Uy, Initial residual = 0.07702641199, Final residual = 0.0006137846056, No Iterations 1
DILUPBiCGStab:  Solving for Uz, Initial residual = 0.02154880658, Final residual = 0.0001334663223, No Iterations 1
Before reaction->correct():
Time before reaction
ExecutionTime = 46.62 s  ClockTime = 46 s

Time after reaction
ExecutionTime = 47.31 s  ClockTime = 47 s

Done reaction->correct():
DILUPBiCGStab:  Solving for CH4, Initial residual = 0.1560863682, Final residual = 0.002016377313, No Iterations 1
DILUPBiCGStab:  Solving for CH2, Initial residual = 0.4847102823, Final residual = 0.009054214958, No Iterations 1
DILUPBiCGStab:  Solving for H2, Initial residual = 0.1578708758, Final residual = 0.007188407857, No Iterations 1
DILUPBiCGStab:  Solving for O2, Initial residual = 0.1551150262, Final residual = 0.001866943587, No Iterations 1
DILUPBiCGStab:  Solving for CO, Initial residual = 0.6445640035, Final residual = 0.01121345379, No Iterations 1
DILUPBiCGStab:  Solving for CO2, Initial residual = 5.948174363e-17, Final residual = 5.948174363e-17, No Iterations 0
DILUPBiCGStab:  Solving for H2O, Initial residual = 0.5565705336, Final residual = 0.01033674763, No Iterations 1
 In EEqn.H: min/max(T) = 300, 386.9288606
   Min Q:-2613.283727
   Max Q:0
  Before: min/max(he) = 2105.240531, 101791.7018
DILUPBiCGStab:  Solving for h, Initial residual = 0.0699928826, Final residual = 0.001236067532, No Iterations 1
After: min/max(he) = 2105.242902, 133474.1228
In thermoCorrectByCantera.h
Before bnds
Before patch loop
Ended thermoCorrect
min/max(T) = 300, 414.2675161
Min Q:-2613.283727
Max Q:0
DICPCG:  Solving for p, Initial residual = 0.6358146752, Final residual = 0.005436336636, No Iterations 101
diagonal:  Solving for rho, Initial residual = 0, Final residual = 0, No Iterations 0
time step continuity errors : sum local = 6.053823001e-06, global = -2.504127169e-10, cumulative = -2.658952899e-05
DICPCG:  Solving for p, Initial residual = 0.214283287, Final residual = 9.874518934e-06, No Iterations 203
diagonal:  Solving for rho, Initial residual = 0, Final residual = 0, No Iterations 0
time step continuity errors : sum local = 2.937815365e-09, global = -8.457346294e-13, cumulative = -2.658952984e-05
ExecutionTime = 52.34 s  ClockTime = 52 s

    min/max/integ(Walls) = -48870.83044, -16.29675126, -0.1914404363
Courant Number mean: 0.04156012181 max: 0.5982010552
deltaT = 4.996927617e-05
---NormalisedGradT: min = min(normalisedGradT) [0 0 0 0 0 0 0] 6.095697715e-08   max = max(normalisedGradT) [0 0 0 0 0 0 0] 1
Time = 0.000247773

Before mesh update
Time before mesh update
ExecutionTime = 52.49 s  ClockTime = 52 s

Time after mesh update
ExecutionTime = 52.49 s  ClockTime = 52 s

After mesh update: 0
diagonal:  Solving for rho, Initial residual = 0, Final residual = 0, No Iterations 0
PIMPLE: iteration 1
DILUPBiCGStab:  Solving for Ux, Initial residual = 0.07014375095, Final residual = 0.0005757309985, No Iterations 1
DILUPBiCGStab:  Solving for Uy, Initial residual = 0.07018964277, Final residual = 0.0007187747173, No Iterations 1
DILUPBiCGStab:  Solving for Uz, Initial residual = 0.02129999223, Final residual = 0.0002362592063, No Iterations 1
Before reaction->correct():
Time before reaction
ExecutionTime = 53.14 s  ClockTime = 53 s

Time after reaction
ExecutionTime = 53.82 s  ClockTime = 53 s

Done reaction->correct():
DILUPBiCGStab:  Solving for CH4, Initial residual = 0.1397930779, Final residual = 0.003836553084, No Iterations 1
DILUPBiCGStab:  Solving for CH2, Initial residual = 0.5004350777, Final residual = 0.01157527359, No Iterations 1
DILUPBiCGStab:  Solving for H2, Initial residual = 0.1227756914, Final residual = 0.001131044816, No Iterations 1
DILUPBiCGStab:  Solving for O2, Initial residual = 0.1373088337, Final residual = 0.002807401286, No Iterations 1
DILUPBiCGStab:  Solving for CO, Initial residual = 0.7726355193, Final residual = 0.01772375363, No Iterations 1
DILUPBiCGStab:  Solving for CO2, Initial residual = 3.249301625e-14, Final residual = 3.249301625e-14, No Iterations 0
DILUPBiCGStab:  Solving for H2O, Initial residual = 0.5897998839, Final residual = 0.01428187183, No Iterations 1
 In EEqn.H: min/max(T) = 300, 414.2675161
   Min Q:-12573.90533
   Max Q:0
  Before: min/max(he) = 2105.242902, 133474.1228
DILUPBiCGStab:  Solving for h, Initial residual = 0.06467096152, Final residual = 0.001472466398, No Iterations 1
After: min/max(he) = 2093.288768, 172838.1265
In thermoCorrectByCantera.h
Before bnds
Before patch loop
Ended thermoCorrect
min/max(T) = 299.9896205, 448.0286438
Min Q:-12573.90533
Max Q:0
DICPCG:  Solving for p, Initial residual = 0.7405842156, Final residual = 0.007236752826, No Iterations 113
diagonal:  Solving for rho, Initial residual = 0, Final residual = 0, No Iterations 0
time step continuity errors : sum local = 6.593854876e-06, global = -2.214133093e-10, cumulative = -2.658975125e-05
DICPCG:  Solving for p, Initial residual = 0.08263872585, Final residual = 8.965607083e-06, No Iterations 195
diagonal:  Solving for rho, Initial residual = 0, Final residual = 0, No Iterations 0
time step continuity errors : sum local = 3.642512829e-09, global = 2.063866793e-11, cumulative = -2.658973061e-05
ExecutionTime = 59.18 s  ClockTime = 59 s

    min/max/integ(Walls) = -58089.74779, 7.425797394, -0.2051686723
Courant Number mean: 0.04159888708 max: 0.6708011352
deltaT = 5.741846991e-05
---NormalisedGradT: min = min(normalisedGradT) [0 0 0 0 0 0 0] 4.218659964e-10   max = max(normalisedGradT) [0 0 0 0 0 0 0] 1
Time = 0.000305191

Before mesh update
Time before mesh update
ExecutionTime = 59.33 s  ClockTime = 59 s

Time after mesh update
ExecutionTime = 59.33 s  ClockTime = 59 s

After mesh update: 0
diagonal:  Solving for rho, Initial residual = 0, Final residual = 0, No Iterations 0
PIMPLE: iteration 1
DILUPBiCGStab:  Solving for Ux, Initial residual = 0.1263275129, Final residual = 0.0007970810925, No Iterations 1
DILUPBiCGStab:  Solving for Uy, Initial residual = 0.06224440742, Final residual = 0.0009698466402, No Iterations 1
DILUPBiCGStab:  Solving for Uz, Initial residual = 0.01821782732, Final residual = 0.0003778520155, No Iterations 1
Before reaction->correct():
Time before reaction
ExecutionTime = 59.96 s  ClockTime = 60 s

Time after reaction
ExecutionTime = 60.65 s  ClockTime = 60 s

Done reaction->correct():
DILUPBiCGStab:  Solving for CH4, Initial residual = 0.1419866964, Final residual = 0.0008164161562, No Iterations 1
DILUPBiCGStab:  Solving for CH2, Initial residual = 0.5151224106, Final residual = 0.01511082245, No Iterations 1
DILUPBiCGStab:  Solving for H2, Initial residual = 0.08924870729, Final residual = 0.003295364288, No Iterations 1
DILUPBiCGStab:  Solving for O2, Initial residual = 0.1039665186, Final residual = 0.003829774531, No Iterations 1
DILUPBiCGStab:  Solving for CO, Initial residual = 0.8043020613, Final residual = 0.02384574787, No Iterations 1
DILUPBiCGStab:  Solving for CO2, Initial residual = 2.776274431e-11, Final residual = 2.776274431e-11, No Iterations 0
DILUPBiCGStab:  Solving for H2O, Initial residual = 0.612276912, Final residual = 0.01934120591, No Iterations 1
 In EEqn.H: min/max(T) = 299.9896205, 448.0286438
   Min Q:-66171.40516
   Max Q:0
  Before: min/max(he) = 2093.288768, 172838.1265
DILUPBiCGStab:  Solving for h, Initial residual = 0.05931002041, Final residual = 0.00175889017, No Iterations 1
After: min/max(he) = 2077.665199, 221202.5312
In thermoCorrectByCantera.h
Before bnds
Before patch loop
Ended thermoCorrect
min/max(T) = 299.9758931, 489.1846422
Min Q:-66171.40516
Max Q:0
DICPCG:  Solving for p, Initial residual = 0.579223335, Final residual = 0.005558732233, No Iterations 121
diagonal:  Solving for rho, Initial residual = 0, Final residual = 0, No Iterations 0
time step continuity errors : sum local = 4.825001902e-06, global = -1.19639822e-10, cumulative = -2.658985025e-05
DICPCG:  Solving for p, Initial residual = 0.06414688259, Final residual = 9.809283049e-06, No Iterations 193
diagonal:  Solving for rho, Initial residual = 0, Final residual = 0, No Iterations 0
time step continuity errors : sum local = 4.417600349e-09, global = 4.657615699e-13, cumulative = -2.658984979e-05
ExecutionTime = 66.08 s  ClockTime = 66 s

    min/max/integ(Walls) = -68193.94205, 17.12984149, -0.2259621731
Courant Number mean: 0.04171582873 max: 0.7451174631
deltaT = 6.512443209e-05
---NormalisedGradT: min = min(normalisedGradT) [0 0 0 0 0 0 0] 7.958959998e-10   max = max(normalisedGradT) [0 0 0 0 0 0 0] 1
Time = 0.000370315

Before mesh update
Time before mesh update
ExecutionTime = 66.23 s  ClockTime = 66 s

Time after mesh update
ExecutionTime = 66.23 s  ClockTime = 66 s

After mesh update: 0
diagonal:  Solving for rho, Initial residual = 0, Final residual = 0, No Iterations 0
PIMPLE: iteration 1
DILUPBiCGStab:  Solving for Ux, Initial residual = 0.09576157781, Final residual = 0.000643550382, No Iterations 1
DILUPBiCGStab:  Solving for Uy, Initial residual = 0.05818452148, Final residual = 0.001418050043, No Iterations 1
DILUPBiCGStab:  Solving for Uz, Initial residual = 0.01668726045, Final residual = 0.0005748264815, No Iterations 1
Before reaction->correct():
Time before reaction
ExecutionTime = 66.84 s  ClockTime = 66 s

Time after reaction
ExecutionTime = 67.53 s  ClockTime = 67 s

Done reaction->correct():
DILUPBiCGStab:  Solving for CH4, Initial residual = 0.3888400505, Final residual = 0.001743353066, No Iterations 1
DILUPBiCGStab:  Solving for CH2, Initial residual = 0.5172683516, Final residual = 0.0193550469, No Iterations 1
DILUPBiCGStab:  Solving for H2, Initial residual = 0.1758018141, Final residual = 0.006824612915, No Iterations 1
DILUPBiCGStab:  Solving for O2, Initial residual = 0.06919953901, Final residual = 0.000281760296, No Iterations 1
DILUPBiCGStab:  Solving for CO, Initial residual = 0.8131015593, Final residual = 0.03126251448, No Iterations 1
DILUPBiCGStab:  Solving for CO2, Initial residual = 3.118345291e-08, Final residual = 1.144955133e-09, No Iterations 1
DILUPBiCGStab:  Solving for H2O, Initial residual = 0.6187892585, Final residual = 0.0256092431, No Iterations 1
 In EEqn.H: min/max(T) = 299.9758931, 489.1846422
   Min Q:-360117.3282
   Max Q:0
  Before: min/max(he) = 2077.665199, 221202.5312
DILUPBiCGStab:  Solving for h, Initial residual = 0.05410775244, Final residual = 0.002264609743, No Iterations 1
After: min/max(he) = 2075.897366, 280441.415
In thermoCorrectByCantera.h
Before bnds
Before patch loop
Ended thermoCorrect
min/max(T) = 299.9743398, 539.0863306
Min Q:-360117.3282
Max Q:0
DICPCG:  Solving for p, Initial residual = 0.4697346227, Final residual = 0.004660602428, No Iterations 124
diagonal:  Solving for rho, Initial residual = 0, Final residual = 0, No Iterations 0
time step continuity errors : sum local = 3.700975934e-06, global = -2.333863693e-10, cumulative = -2.659008317e-05
DICPCG:  Solving for p, Initial residual = 0.0790062958, Final residual = 9.328471249e-06, No Iterations 207
diagonal:  Solving for rho, Initial residual = 0, Final residual = 0, No Iterations 0
time step continuity errors : sum local = 4.290160402e-09, global = -2.77478438e-13, cumulative = -2.659008345e-05
ExecutionTime = 73.14 s  ClockTime = 73 s

    min/max/integ(Walls) = -79438.45389, 18.22787011, -0.2554255173
Courant Number mean: 0.04435196546 max: 0.8294829612
deltaT = 7.297564002e-05
---NormalisedGradT: min = min(normalisedGradT) [0 0 0 0 0 0 0] 1.057306754e-09   max = max(normalisedGradT) [0 0 0 0 0 0 0] 1
Time = 0.000443291

Before mesh update
Time before mesh update
ExecutionTime = 73.29 s  ClockTime = 73 s

Time after mesh update
ExecutionTime = 73.29 s  ClockTime = 73 s

After mesh update: 0
diagonal:  Solving for rho, Initial residual = 0, Final residual = 0, No Iterations 0
PIMPLE: iteration 1
DILUPBiCGStab:  Solving for Ux, Initial residual = 0.04523352603, Final residual = 0.001393629818, No Iterations 1
DILUPBiCGStab:  Solving for Uy, Initial residual = 0.04836576892, Final residual = 0.002083338192, No Iterations 1
DILUPBiCGStab:  Solving for Uz, Initial residual = 0.01853697357, Final residual = 6.121618634e-05, No Iterations 1
Before reaction->correct():
Time before reaction
ExecutionTime = 73.94 s  ClockTime = 73 s

Time after reaction
ExecutionTime = 74.61 s  ClockTime = 74 s

Done reaction->correct():
DILUPBiCGStab:  Solving for CH4, Initial residual = 0.5715752506, Final residual = 0.02682819779, No Iterations 1
DILUPBiCGStab:  Solving for CH2, Initial residual = 0.5025378959, Final residual = 0.02369782973, No Iterations 1
DILUPBiCGStab:  Solving for H2, Initial residual = 0.3665068064, Final residual = 0.01210766912, No Iterations 1
DILUPBiCGStab:  Solving for O2, Initial residual = 0.07779444217, Final residual = 0.001478808904, No Iterations 1
DILUPBiCGStab:  Solving for CO, Initial residual = 0.8059528614, Final residual = 0.00432170951, No Iterations 1
DILUPBiCGStab:  Solving for CO2, Initial residual = 3.765463171e-05, Final residual = 1.865539398e-06, No Iterations 1
DILUPBiCGStab:  Solving for H2O, Initial residual = 0.6070160633, Final residual = 0.003795414944, No Iterations 1
 In EEqn.H: min/max(T) = 299.9743398, 539.0863306
   Min Q:-1931787.707
   Max Q:0
  Before: min/max(he) = 2075.897366, 280441.415
DILUPBiCGStab:  Solving for h, Initial residual = 0.04891266906, Final residual = 0.0003121483184, No Iterations 1
After: min/max(he) = 2076.627594, 352875.8638
In thermoCorrectByCantera.h
Before bnds
Before patch loop
Ended thermoCorrect
min/max(T) = 299.9749814, 599.3120334
Min Q:-1931787.707
Max Q:0
DICPCG:  Solving for p, Initial residual = 0.5565786234, Final residual = 0.005474187732, No Iterations 136
diagonal:  Solving for rho, Initial residual = 0, Final residual = 0, No Iterations 0
time step continuity errors : sum local = 4.556840418e-06, global = 2.164451249e-10, cumulative = -2.6589867e-05
DICPCG:  Solving for p, Initial residual = 0.2045240507, Final residual = 9.635744758e-06, No Iterations 221
diagonal:  Solving for rho, Initial residual = 0, Final residual = 0, No Iterations 0
time step continuity errors : sum local = 5.895215184e-09, global = 2.282918944e-13, cumulative = -2.658986678e-05
ExecutionTime = 80.63 s  ClockTime = 80 s

    min/max/integ(Walls) = -89951.4284, 17.77431386, -0.2882946428
Courant Number mean: 0.04988620713 max: 0.9139022809
deltaT = 7.985059404e-05
---NormalisedGradT: min = min(normalisedGradT) [0 0 0 0 0 0 0] 1.526452935e-10   max = max(normalisedGradT) [0 0 0 0 0 0 0] 1
Time = 0.000523142

Before mesh update
Time before mesh update
ExecutionTime = 80.79 s  ClockTime = 80 s

Time after mesh update
ExecutionTime = 80.79 s  ClockTime = 80 s

After mesh update: 0
diagonal:  Solving for rho, Initial residual = 0, Final residual = 0, No Iterations 0
PIMPLE: iteration 1
DILUPBiCGStab:  Solving for Ux, Initial residual = 0.04368883424, Final residual = 0.001036105563, No Iterations 1
DILUPBiCGStab:  Solving for Uy, Initial residual = 0.0820378017, Final residual = 0.0007355544044, No Iterations 1
DILUPBiCGStab:  Solving for Uz, Initial residual = 0.03395866621, Final residual = 0.0001650529917, No Iterations 1
Before reaction->correct():
Time before reaction
ExecutionTime = 81.43 s  ClockTime = 81 s

Time after reaction
ExecutionTime = 82.06 s  ClockTime = 82 s

Done reaction->correct():
DILUPBiCGStab:  Solving for CH4, Initial residual = 0.4819923137, Final residual = 0.003164607194, No Iterations 1
DILUPBiCGStab:  Solving for CH2, Initial residual = 0.4729533011, Final residual = 0.003241263407, No Iterations 1
DILUPBiCGStab:  Solving for H2, Initial residual = 0.432732711, Final residual = 0.01771891301, No Iterations 1
DILUPBiCGStab:  Solving for O2, Initial residual = 0.3514565634, Final residual = 0.00249476787, No Iterations 1
DILUPBiCGStab:  Solving for CO, Initial residual = 0.7866656225, Final residual = 0.005550806242, No Iterations 1
DILUPBiCGStab:  Solving for CO2, Initial residual = 0.04091523075, Final residual = 0.0002468377895, No Iterations 1
DILUPBiCGStab:  Solving for H2O, Initial residual = 0.5792991513, Final residual = 0.004930689371, No Iterations 1
 In EEqn.H: min/max(T) = 299.9749814, 599.3120334
   Min Q:-9719832.28
   Max Q:0
  Before: min/max(he) = 2076.627594, 352875.8638
DILUPBiCGStab:  Solving for h, Initial residual = 0.04339555661, Final residual = 0.0004959672107, No Iterations 1
After: min/max(he) = 2072.818378, 439607.015
In thermoCorrectByCantera.h
Before bnds
Before patch loop
Ended thermoCorrect
min/max(T) = 299.9716345, 670.2323326
Min Q:-9719832.28
Max Q:0
DICPCG:  Solving for p, Initial residual = 0.6875950478, Final residual = 0.006801074557, No Iterations 129
diagonal:  Solving for rho, Initial residual = 0, Final residual = 0, No Iterations 0
time step continuity errors : sum local = 5.699247401e-06, global = 3.543846354e-10, cumulative = -2.658951239e-05
DICPCG:  Solving for p, Initial residual = 0.2572477045, Final residual = 9.726186606e-06, No Iterations 225
diagonal:  Solving for rho, Initial residual = 0, Final residual = 0, No Iterations 0
time step continuity errors : sum local = 3.736029805e-09, global = 7.450361392e-13, cumulative = -2.658951165e-05
ExecutionTime = 87.93 s  ClockTime = 87 s

volFieldValue Qdot_volIntegrate write:
    volIntegrate(region0) of Qdot = -0.1054007095

volFieldValue AFlame_volIntegrate write:
    volIntegrate(region0) of interfaceAreaFlame = 0

    min/max/integ(Walls) = -102191.5975, 20.14027802, -0.3245793715
wallHeatFlux wallHeatFlux1 write:
    writing field wallHeatFlux
volFieldValue volFieldValue1 write:
    max(region0) of Qdot = 0

Courant Number mean: 0.05250869694 max: 0.9613270034
deltaT = 8.30628847e-05
---NormalisedGradT: min = min(normalisedGradT) [0 0 0 0 0 0 0] 5.054270926e-10   max = max(normalisedGradT) [0 0 0 0 0 0 0] 1
Time = 0.000606205

Before mesh update
Time before mesh update
ExecutionTime = 88.1 s  ClockTime = 88 s

Time after mesh update
ExecutionTime = 88.1 s  ClockTime = 88 s

After mesh update: 0
diagonal:  Solving for rho, Initial residual = 0, Final residual = 0, No Iterations 0
PIMPLE: iteration 1
DILUPBiCGStab:  Solving for Ux, Initial residual = 0.01985953612, Final residual = 0.0009434049937, No Iterations 1
DILUPBiCGStab:  Solving for Uy, Initial residual = 0.03828465863, Final residual = 0.0003594463365, No Iterations 1
DILUPBiCGStab:  Solving for Uz, Initial residual = 0.03432250947, Final residual = 0.0003528088883, No Iterations 1
Before reaction->correct():
Time before reaction
ExecutionTime = 88.77 s  ClockTime = 88 s

Time after reaction
ExecutionTime = 89.42 s  ClockTime = 89 s

Done reaction->correct():
DILUPBiCGStab:  Solving for CH4, Initial residual = 0.4079427462, Final residual = 0.003513673222, No Iterations 1
DILUPBiCGStab:  Solving for CH2, Initial residual = 0.4066960242, Final residual = 0.003656133687, No Iterations 1
DILUPBiCGStab:  Solving for H2, Initial residual = 0.3742979536, Final residual = 0.01824960952, No Iterations 1
DILUPBiCGStab:  Solving for O2, Initial residual = 0.5727781997, Final residual = 0.004680961809, No Iterations 1
DILUPBiCGStab:  Solving for CO, Initial residual = 0.7255358472, Final residual = 0.006661655114, No Iterations 1
DILUPBiCGStab:  Solving for CO2, Initial residual = 0.9629774352, Final residual = 0.007247009901, No Iterations 1
DILUPBiCGStab:  Solving for H2O, Initial residual = 0.5132108328, Final residual = 0.005779418145, No Iterations 1
 In EEqn.H: min/max(T) = 299.9716345, 670.2323326
   Min Q:-42209918.24
   Max Q:0
  Before: min/max(he) = 2072.818378, 439607.015
DILUPBiCGStab:  Solving for h, Initial residual = 0.0361959748, Final residual = 0.0006524390249, No Iterations 1
After: min/max(he) = 2063.348541, 533090.7808
In thermoCorrectByCantera.h
Before bnds
Before patch loop
Ended thermoCorrect
min/max(T) = 299.9633139, 745.1462569
Min Q:-42209918.24
Max Q:0
DICPCG:  Solving for p, Initial residual = 0.6272505714, Final residual = 0.006002080402, No Iterations 124
diagonal:  Solving for rho, Initial residual = 0, Final residual = 0, No Iterations 0
time step continuity errors : sum local = 4.086315354e-06, global = -2.773472336e-10, cumulative = -2.658978899e-05
DICPCG:  Solving for p, Initial residual = 0.1464338217, Final residual = 9.427281543e-06, No Iterations 224
diagonal:  Solving for rho, Initial residual = 0, Final residual = 0, No Iterations 0
time step continuity errors : sum local = 3.430256015e-09, global = -1.831834729e-13, cumulative = -2.658978918e-05
ExecutionTime = 95.39 s  ClockTime = 95 s

    min/max/integ(Walls) = -114980.4645, 22.29943147, -0.3626564235
Courant Number mean: 0.05066555946 max: 0.9384118956
deltaT = 8.851431348e-05
---NormalisedGradT: min = min(normalisedGradT) [0 0 0 0 0 0 0] 2.173814177e-10   max = max(normalisedGradT) [0 0 0 0 0 0 0] 1
Time = 0.000694719

Before mesh update
Time before mesh update
ExecutionTime = 95.55 s  ClockTime = 95 s

Time after mesh update
ExecutionTime = 95.55 s  ClockTime = 95 s

After mesh update: 0
diagonal:  Solving for rho, Initial residual = 0, Final residual = 0, No Iterations 0
PIMPLE: iteration 1
DILUPBiCGStab:  Solving for Ux, Initial residual = 0.03967962193, Final residual = 0.001756384791, No Iterations 1
DILUPBiCGStab:  Solving for Uy, Initial residual = 0.1338283325, Final residual = 0.002709070766, No Iterations 1
DILUPBiCGStab:  Solving for Uz, Initial residual = 0.03981546839, Final residual = 0.0006702589676, No Iterations 1
Before reaction->correct():
Time before reaction
ExecutionTime = 96.17 s  ClockTime = 96 s

Time after reaction
ExecutionTime = 96.8 s  ClockTime = 96 s

Done reaction->correct():
DILUPBiCGStab:  Solving for CH4, Initial residual = 0.3242027881, Final residual = 0.003616864971, No Iterations 1
DILUPBiCGStab:  Solving for CH2, Initial residual = 0.3240785408, Final residual = 0.003763860038, No Iterations 1
DILUPBiCGStab:  Solving for H2, Initial residual = 0.2757778745, Final residual = 0.004984395549, No Iterations 2
DILUPBiCGStab:  Solving for O2, Initial residual = 0.4299686782, Final residual = 0.004696390908, No Iterations 1
DILUPBiCGStab:  Solving for CO, Initial residual = 0.6128461906, Final residual = 0.007810884519, No Iterations 1
DILUPBiCGStab:  Solving for CO2, Initial residual = 0.9826368542, Final residual = 0.01097735007, No Iterations 1
DILUPBiCGStab:  Solving for H2O, Initial residual = 0.4234242849, Final residual = 0.0064507104, No Iterations 1
 In EEqn.H: min/max(T) = 299.9633139, 745.1462569
   Min Q:-130577835.5
   Max Q:0
  Before: min/max(he) = 2063.348541, 533090.7808
DILUPBiCGStab:  Solving for h, Initial residual = 0.02970754057, Final residual = 0.0008613244968, No Iterations 1
After: min/max(he) = 2055.727101, 622034.7967
In thermoCorrectByCantera.h
Before bnds
Before patch loop
Ended thermoCorrect
min/max(T) = 299.9566174, 814.7798811
Min Q:-130577835.5
Max Q:0
DICPCG:  Solving for p, Initial residual = 0.6356263098, Final residual = 0.005952127858, No Iterations 146
diagonal:  Solving for rho, Initial residual = 0, Final residual = 0, No Iterations 0
time step continuity errors : sum local = 3.75159611e-06, global = -4.158881725e-12, cumulative = -2.658979334e-05
DICPCG:  Solving for p, Initial residual = 0.2372217362, Final residual = 9.649787194e-06, No Iterations 227
diagonal:  Solving for rho, Initial residual = 0, Final residual = 0, No Iterations 0
time step continuity errors : sum local = 3.832687619e-09, global = -5.551709074e-13, cumulative = -2.658979389e-05
ExecutionTime = 102.79 s  ClockTime = 102 s

    min/max/integ(Walls) = -128257.3697, 23.1369108, -0.4029620099
Courant Number mean: 0.04945041201 max: 0.9046466874
deltaT = 9.784406964e-05
---NormalisedGradT: min = min(normalisedGradT) [0 0 0 0 0 0 0] 5.297907927e-10   max = max(normalisedGradT) [0 0 0 0 0 0 0] 1
Time = 0.000792563

Before mesh update
Time before mesh update
ExecutionTime = 102.95 s  ClockTime = 103 s

Time after mesh update
ExecutionTime = 102.95 s  ClockTime = 103 s

After mesh update: 0
diagonal:  Solving for rho, Initial residual = 0, Final residual = 0, No Iterations 0
PIMPLE: iteration 1
DILUPBiCGStab:  Solving for Ux, Initial residual = 0.04018501627, Final residual = 0.0007621395938, No Iterations 1
DILUPBiCGStab:  Solving for Uy, Initial residual = 0.4286340182, Final residual = 0.01467382624, No Iterations 1
DILUPBiCGStab:  Solving for Uz, Initial residual = 0.05784191134, Final residual = 0.001531287735, No Iterations 1
Before reaction->correct():
Time before reaction
ExecutionTime = 103.59 s  ClockTime = 103 s

Time after reaction
ExecutionTime = 104.17 s  ClockTime = 104 s

Done reaction->correct():
DILUPBiCGStab:  Solving for CH4, Initial residual = 0.2338164992, Final residual = 0.003377288335, No Iterations 1
DILUPBiCGStab:  Solving for CH2, Initial residual = 0.2338650209, Final residual = 0.003503715523, No Iterations 1
DILUPBiCGStab:  Solving for H2, Initial residual = 0.1519633924, Final residual = 0.004885136287, No Iterations 2
DILUPBiCGStab:  Solving for O2, Initial residual = 0.3242921472, Final residual = 0.004612153982, No Iterations 1
DILUPBiCGStab:  Solving for CO, Initial residual = 0.4563353645, Final residual = 0.007920961678, No Iterations 1
DILUPBiCGStab:  Solving for CO2, Initial residual = 0.947450543, Final residual = 0.01740687163, No Iterations 1
DILUPBiCGStab:  Solving for H2O, Initial residual = 0.3240014953, Final residual = 0.006531736901, No Iterations 1
 In EEqn.H: min/max(T) = 299.9566174, 814.7798811
   Min Q:-236950788.2
   Max Q:0
  Before: min/max(he) = 2055.727101, 622034.7967
DILUPBiCGStab:  Solving for h, Initial residual = 0.02397325576, Final residual = 0.001134773912, No Iterations 1
After: min/max(he) = 2050.861115, 698579.1352
In thermoCorrectByCantera.h
Before bnds
Before patch loop
Ended thermoCorrect
min/max(T) = 299.952342, 873.2486531
Min Q:-236950788.2
Max Q:0
DICPCG:  Solving for p, Initial residual = 0.6297859635, Final residual = 0.005984829771, No Iterations 131
diagonal:  Solving for rho, Initial residual = 0, Final residual = 0, No Iterations 0
time step continuity errors : sum local = 3.638538904e-06, global = -3.144583644e-11, cumulative = -2.658982534e-05
DICPCG:  Solving for p, Initial residual = 0.1321793074, Final residual = 9.220863271e-06, No Iterations 224
diagonal:  Solving for rho, Initial residual = 0, Final residual = 0, No Iterations 0
time step continuity errors : sum local = 4.028759813e-09, global = -9.819216192e-14, cumulative = -2.658982543e-05
ExecutionTime = 109.97 s  ClockTime = 110 s

    min/max/integ(Walls) = -141309.2073, 23.76905648, -0.4448543077
Courant Number mean: 0.04864409941 max: 0.8611118691
deltaT = 0.0001092065968
---NormalisedGradT: min = min(normalisedGradT) [0 0 0 0 0 0 0] 2.060199343e-10   max = max(normalisedGradT) [0 0 0 0 0 0 0] 1
Time = 0.00090177

Before mesh update
Time before mesh update
ExecutionTime = 110.12 s  ClockTime = 110 s

Time after mesh update
ExecutionTime = 110.12 s  ClockTime = 110 s

After mesh update: 0
diagonal:  Solving for rho, Initial residual = 0, Final residual = 0, No Iterations 0
PIMPLE: iteration 1
DILUPBiCGStab:  Solving for Ux, Initial residual = 0.05739772047, Final residual = 0.002270307631, No Iterations 1
DILUPBiCGStab:  Solving for Uy, Initial residual = 0.5176141714, Final residual = 0.02451254842, No Iterations 1
DILUPBiCGStab:  Solving for Uz, Initial residual = 0.07126055758, Final residual = 0.002469121968, No Iterations 1
Before reaction->correct():
Time before reaction
ExecutionTime = 110.78 s  ClockTime = 110 s

Time after reaction
ExecutionTime = 111.37 s  ClockTime = 111 s

Done reaction->correct():
DILUPBiCGStab:  Solving for CH4, Initial residual = 0.149486605, Final residual = 0.00289079842, No Iterations 1
DILUPBiCGStab:  Solving for CH2, Initial residual = 0.149551179, Final residual = 0.002965239031, No Iterations 1
DILUPBiCGStab:  Solving for H2, Initial residual = 0.1176757194, Final residual = 0.004834453069, No Iterations 2
DILUPBiCGStab:  Solving for O2, Initial residual = 0.2256598263, Final residual = 0.003861129948, No Iterations 1
DILUPBiCGStab:  Solving for CO, Initial residual = 0.2999343079, Final residual = 0.006740154615, No Iterations 1
DILUPBiCGStab:  Solving for CO2, Initial residual = 0.8442267411, Final residual = 0.02517860234, No Iterations 1
DILUPBiCGStab:  Solving for H2O, Initial residual = 0.2263962236, Final residual = 0.00555366822, No Iterations 1
 In EEqn.H: min/max(T) = 299.952342, 873.2486531
   Min Q:-225397188.6
   Max Q:0
  Before: min/max(he) = 2050.861115, 698579.1352
DILUPBiCGStab:  Solving for h, Initial residual = 0.02135204216, Final residual = 0.0003672219105, No Iterations 2
After: min/max(he) = 2044.765512, 804299.5723
In thermoCorrectByCantera.h
Before bnds
Before patch loop
Ended thermoCorrect
min/max(T) = 299.9469861, 952.9186663
Min Q:-225397188.6
Max Q:0
DICPCG:  Solving for p, Initial residual = 0.820890463, Final residual = 0.008152475358, No Iterations 157
diagonal:  Solving for rho, Initial residual = 0, Final residual = 0, No Iterations 0
time step continuity errors : sum local = 5.196107324e-06, global = 5.691870566e-10, cumulative = -2.658925625e-05
DICPCG:  Solving for p, Initial residual = 0.5183014908, Final residual = 9.548008591e-06, No Iterations 237
diagonal:  Solving for rho, Initial residual = 0, Final residual = 0, No Iterations 0
time step continuity errors : sum local = 5.283331049e-09, global = 5.60189921e-14, cumulative = -2.658925619e-05
ExecutionTime = 117.74 s  ClockTime = 117 s

    min/max/integ(Walls) = -154806.6194, 24.14389612, -0.4918557554
Courant Number mean: 0.04475132952 max: 0.8684612024
deltaT = 0.0001217813205
---NormalisedGradT: min = min(normalisedGradT) [0 0 0 0 0 0 0] 1.814128568e-10   max = max(normalisedGradT) [0 0 0 0 0 0 0] 1
Time = 0.00102355

Before mesh update
Time before mesh update
ExecutionTime = 117.9 s  ClockTime = 117 s

Time after mesh update
ExecutionTime = 117.9 s  ClockTime = 117 s

After mesh update: 0
diagonal:  Solving for rho, Initial residual = 0, Final residual = 0, No Iterations 0
PIMPLE: iteration 1
DILUPBiCGStab:  Solving for Ux, Initial residual = 0.1192268436, Final residual = 0.0003938923348, No Iterations 2
DILUPBiCGStab:  Solving for Uy, Initial residual = 0.1615406858, Final residual = 0.007267326975, No Iterations 1
DILUPBiCGStab:  Solving for Uz, Initial residual = 0.02154252749, Final residual = 0.000150701376, No Iterations 2
Before reaction->correct():
Time before reaction
ExecutionTime = 118.57 s  ClockTime = 118 s

Time after reaction
ExecutionTime = 119.11 s  ClockTime = 119 s

Done reaction->correct():
DILUPBiCGStab:  Solving for CH4, Initial residual = 0.1020122684, Final residual = 0.003237182691, No Iterations 1
DILUPBiCGStab:  Solving for CH2, Initial residual = 0.1020299892, Final residual = 0.003313878606, No Iterations 1
DILUPBiCGStab:  Solving for H2, Initial residual = 0.3694331973, Final residual = 0.009092050963, No Iterations 3
DILUPBiCGStab:  Solving for O2, Initial residual = 0.1852452064, Final residual = 0.004798083498, No Iterations 1
DILUPBiCGStab:  Solving for CO, Initial residual = 0.2671176169, Final residual = 0.01300119536, No Iterations 1
DILUPBiCGStab:  Solving for CO2, Initial residual = 0.7908338205, Final residual = 0.01453756117, No Iterations 2
DILUPBiCGStab:  Solving for H2O, Initial residual = 0.1861768473, Final residual = 0.006987834062, No Iterations 1
 In EEqn.H: min/max(T) = 299.9469861, 952.9186663
   Min Q:-195454614.5
   Max Q:301063850.9
  Before: min/max(he) = 2044.765512, 804299.5723
DILUPBiCGStab:  Solving for h, Initial residual = 0.02646538948, Final residual = 0.000434493783, No Iterations 2
After: min/max(he) = 2047.936642, 1051973.029
In thermoCorrectByCantera.h
Before bnds
Before patch loop
Ended thermoCorrect
min/max(T) = 299.9497724, 1137.033592
Min Q:-195454614.5
Max Q:301063850.9
DICPCG:  Solving for p, Initial residual = 0.7892762187, Final residual = 0.007709081472, No Iterations 163
diagonal:  Solving for rho, Initial residual = 0, Final residual = 0, No Iterations 0
time step continuity errors : sum local = 6.301322093e-06, global = 8.220332969e-10, cumulative = -2.658843416e-05
DICPCG:  Solving for p, Initial residual = 0.2562492082, Final residual = 9.410527173e-06, No Iterations 241
diagonal:  Solving for rho, Initial residual = 0, Final residual = 0, No Iterations 0
time step continuity errors : sum local = 1.49775422e-08, global = 1.603342081e-13, cumulative = -2.6588434e-05
ExecutionTime = 125.53 s  ClockTime = 125 s

volFieldValue Qdot_volIntegrate write:
    volIntegrate(region0) of Qdot = -1.208574855

volFieldValue AFlame_volIntegrate write:
    volIntegrate(region0) of interfaceAreaFlame = 0

    min/max/integ(Walls) = -167818.1011, 17.75881943, -0.544020494
wallHeatFlux wallHeatFlux1 write:
    writing field wallHeatFlux
volFieldValue volFieldValue1 write:
    max(region0) of Qdot = 301063850.9

Courant Number mean: 0.06178545944 max: 1.11303298
deltaT = 0.0001094139371
---NormalisedGradT: min = min(normalisedGradT) [0 0 0 0 0 0 0] 5.244246993e-10   max = max(normalisedGradT) [0 0 0 0 0 0 0] 1
Time = 0.00113296

Before mesh update
Time before mesh update
ExecutionTime = 125.69 s  ClockTime = 125 s

Time after mesh update
ExecutionTime = 125.69 s  ClockTime = 125 s

After mesh update: 0
diagonal:  Solving for rho, Initial residual = 0, Final residual = 0, No Iterations 0
PIMPLE: iteration 1
DILUPBiCGStab:  Solving for Ux, Initial residual = 0.09250408793, Final residual = 0.0005103881385, No Iterations 2
DILUPBiCGStab:  Solving for Uy, Initial residual = 0.3476561389, Final residual = 0.002526784004, No Iterations 2
DILUPBiCGStab:  Solving for Uz, Initial residual = 0.06158293381, Final residual = 0.0004376609357, No Iterations 2
Before reaction->correct():
Time before reaction
ExecutionTime = 126.36 s  ClockTime = 126 s

Time after reaction
ExecutionTime = 127.34 s  ClockTime = 127 s

Done reaction->correct():
DILUPBiCGStab:  Solving for CH4, Initial residual = 0.07534056521, Final residual = 0.003218197973, No Iterations 1
DILUPBiCGStab:  Solving for CH2, Initial residual = 0.06938964158, Final residual = 0.003403765498, No Iterations 1
DILUPBiCGStab:  Solving for H2, Initial residual = 0.4862200897, Final residual = 0.02032261399, No Iterations 3
DILUPBiCGStab:  Solving for O2, Initial residual = 0.212742916, Final residual = 0.003531809432, No Iterations 2
DILUPBiCGStab:  Solving for CO, Initial residual = 0.6977010298, Final residual = 0.01298448125, No Iterations 2
DILUPBiCGStab:  Solving for CO2, Initial residual = 0.9990947691, Final residual = 0.0307997856, No Iterations 2
DILUPBiCGStab:  Solving for H2O, Initial residual = 0.2077120227, Final residual = 0.005251530744, No Iterations 2
 In EEqn.H: min/max(T) = 299.9497724, 1137.033592
   Min Q:-181906405.3
   Max Q:2184877754
  Before: min/max(he) = 2047.936642, 1051973.029
DILUPBiCGStab:  Solving for h, Initial residual = 0.04851593982, Final residual = 0.001183073021, No Iterations 2
After: min/max(he) = 2075.009299, 1937824.995
In thermoCorrectByCantera.h
Before bnds
Before patch loop
Ended thermoCorrect
min/max(T) = 299.9735595, 1766.941058
Min Q:-181906405.3
Max Q:2184877754
DICPCG:  Solving for p, Initial residual = 0.773058686, Final residual = 0.006981859902, No Iterations 164
diagonal:  Solving for rho, Initial residual = 0, Final residual = 0, No Iterations 0
time step continuity errors : sum local = 1.362258417e-05, global = 8.519705344e-10, cumulative = -2.658758203e-05
DICPCG:  Solving for p, Initial residual = 0.2896573752, Final residual = 9.752358404e-06, No Iterations 236
diagonal:  Solving for rho, Initial residual = 0, Final residual = 0, No Iterations 0
time step continuity errors : sum local = 3.721959991e-08, global = 2.594825063e-13, cumulative = -2.658758177e-05
ExecutionTime = 133.94 s  ClockTime = 134 s

    min/max/integ(Walls) = -182879.6415, 4.384963339, -0.5986388487
Courant Number mean: 0.108113477 max: 2.212621609
deltaT = 4.944990895e-05
---NormalisedGradT: min = min(normalisedGradT) [0 0 0 0 0 0 0] 3.587185048e-10   max = max(normalisedGradT) [0 0 0 0 0 0 0] 1
Time = 0.00118241

Before mesh update
Time before mesh update
ExecutionTime = 134.09 s  ClockTime = 134 s

Time after mesh update
ExecutionTime = 134.09 s  ClockTime = 134 s

After mesh update: 0
diagonal:  Solving for rho, Initial residual = 0, Final residual = 0, No Iterations 0
PIMPLE: iteration 1
DILUPBiCGStab:  Solving for Ux, Initial residual = 0.09449717379, Final residual = 0.0006195625656, No Iterations 2
DILUPBiCGStab:  Solving for Uy, Initial residual = 0.1599095763, Final residual = 0.001199280132, No Iterations 2
DILUPBiCGStab:  Solving for Uz, Initial residual = 0.06079277236, Final residual = 0.002741540818, No Iterations 1
Before reaction->correct():
Time before reaction
ExecutionTime = 134.75 s  ClockTime = 134 s

Time after reaction
ExecutionTime = 136.55 s  ClockTime = 136 s

Done reaction->correct():
DILUPBiCGStab:  Solving for CH4, Initial residual = 0.03386661628, Final residual = 0.001313236839, No Iterations 1
DILUPBiCGStab:  Solving for CH2, Initial residual = 0.03111052811, Final residual = 0.0007951689546, No Iterations 1
DILUPBiCGStab:  Solving for H2, Initial residual = 0.09104419685, Final residual = 0.002619920413, No Iterations 3
DILUPBiCGStab:  Solving for O2, Initial residual = 0.07065814895, Final residual = 0.00121748935, No Iterations 2
DILUPBiCGStab:  Solving for CO, Initial residual = 0.1693836689, Final residual = 0.002419905016, No Iterations 2
DILUPBiCGStab:  Solving for CO2, Initial residual = 0.2104991114, Final residual = 0.002565503278, No Iterations 2
DILUPBiCGStab:  Solving for H2O, Initial residual = 0.06701091745, Final residual = 0.001726539013, No Iterations 2
 In EEqn.H: min/max(T) = 299.9735595, 1766.941058
   Min Q:-203740885.5
   Max Q:3675169087
  Before: min/max(he) = 2075.009299, 1937824.995
DILUPBiCGStab:  Solving for h, Initial residual = 0.0312468052, Final residual = 0.0008764933513, No Iterations 2
After: min/max(he) = 2101.067454, 2317127.351
In thermoCorrectByCantera.h
Before bnds
Before patch loop
Ended thermoCorrect
min/max(T) = 300, 2021.642391
Min Q:-203740885.5
Max Q:3675169087
DICPCG:  Solving for p, Initial residual = 0.7736298943, Final residual = 0.006946697767, No Iterations 133
diagonal:  Solving for rho, Initial residual = 0, Final residual = 0, No Iterations 0
time step continuity errors : sum local = 1.27371662e-05, global = -6.441403929e-09, cumulative = -2.659402317e-05
DICPCG:  Solving for p, Initial residual = 0.2241534603, Final residual = 8.681999084e-06, No Iterations 222
diagonal:  Solving for rho, Initial residual = 0, Final residual = 0, No Iterations 0
time step continuity errors : sum local = 2.669740395e-08, global = 2.161486364e-12, cumulative = -2.659402101e-05
ExecutionTime = 142.58 s  ClockTime = 142 s

    min/max/integ(Walls) = -200090.8561, -10.7907011, -0.6404879656
Courant Number mean: 0.0911456427 max: 1.527880493
deltaT = 3.236503716e-05
---NormalisedGradT: min = min(normalisedGradT) [0 0 0 0 0 0 0] 3.855671105e-10   max = max(normalisedGradT) [0 0 0 0 0 0 0] 1
Time = 0.00121478

Before mesh update
Time before mesh update
ExecutionTime = 142.73 s  ClockTime = 142 s

Time after mesh update
ExecutionTime = 142.73 s  ClockTime = 142 s

After mesh update: 0
diagonal:  Solving for rho, Initial residual = 0, Final residual = 0, No Iterations 0
PIMPLE: iteration 1
DILUPBiCGStab:  Solving for Ux, Initial residual = 0.1874980403, Final residual = 0.0006856287889, No Iterations 2
DILUPBiCGStab:  Solving for Uy, Initial residual = 0.1572266092, Final residual = 0.005705361776, No Iterations 1
DILUPBiCGStab:  Solving for Uz, Initial residual = 0.07477018227, Final residual = 0.002089424864, No Iterations 1
Before reaction->correct():
Time before reaction
ExecutionTime = 143.37 s  ClockTime = 143 s

Time after reaction
ExecutionTime = 145.86 s  ClockTime = 145 s

Done reaction->correct():
DILUPBiCGStab:  Solving for CH4, Initial residual = 0.02152084071, Final residual = 0.0006892628722, No Iterations 1
DILUPBiCGStab:  Solving for CH2, Initial residual = 0.02206459026, Final residual = 0.0004860239202, No Iterations 1
DILUPBiCGStab:  Solving for H2, Initial residual = 0.04131348359, Final residual = 0.001998029313, No Iterations 2
DILUPBiCGStab:  Solving for O2, Initial residual = 0.03526670099, Final residual = 0.0006315884776, No Iterations 2
DILUPBiCGStab:  Solving for CO, Initial residual = 0.1188792215, Final residual = 0.005096987248, No Iterations 1
DILUPBiCGStab:  Solving for CO2, Initial residual = 0.06482986233, Final residual = 0.001061808054, No Iterations 2
DILUPBiCGStab:  Solving for H2O, Initial residual = 0.03379614989, Final residual = 0.0008595459278, No Iterations 2
 In EEqn.H: min/max(T) = 300, 2021.642391
   Min Q:-202447551.6
   Max Q:4517496138
  Before: min/max(he) = 2101.067454, 2317127.351
DILUPBiCGStab:  Solving for h, Initial residual = 0.02150037886, Final residual = 0.0005545430259, No Iterations 2
After: min/max(he) = 2093.941177, 2529779.086
In thermoCorrectByCantera.h
Before bnds
Before patch loop
Ended thermoCorrect
min/max(T) = 300, 2157.501235
Min Q:-202447551.6
Max Q:4517496138
DICPCG:  Solving for p, Initial residual = 0.7324192342, Final residual = 0.007215477758, No Iterations 115
diagonal:  Solving for rho, Initial residual = 0, Final residual = 0, No Iterations 0
time step continuity errors : sum local = 1.568429036e-05, global = 1.82690904e-09, cumulative = -2.65921941e-05
DICPCG:  Solving for p, Initial residual = 0.1902274794, Final residual = 9.827160252e-06, No Iterations 208
diagonal:  Solving for rho, Initial residual = 0, Final residual = 0, No Iterations 0
time step continuity errors : sum local = 2.248730823e-08, global = -6.118353805e-12, cumulative = -2.659220022e-05
ExecutionTime = 151.43 s  ClockTime = 151 s

    min/max/integ(Walls) = -222607.8657, -28.08564414, -0.6919175062
Courant Number mean: 0.08482891775 max: 1.24814124
deltaT = 2.593058872e-05
---NormalisedGradT: min = min(normalisedGradT) [0 0 0 0 0 0 0] 1.135124901e-08   max = max(normalisedGradT) [0 0 0 0 0 0 0] 1
Time = 0.00124071

Before mesh update
Time before mesh update
ExecutionTime = 151.59 s  ClockTime = 151 s

Time after mesh update
ExecutionTime = 151.59 s  ClockTime = 151 s

After mesh update: 0
diagonal:  Solving for rho, Initial residual = 0, Final residual = 0, No Iterations 0
PIMPLE: iteration 1
DILUPBiCGStab:  Solving for Ux, Initial residual = 0.1472151267, Final residual = 0.006948744968, No Iterations 1
DILUPBiCGStab:  Solving for Uy, Initial residual = 0.09468258279, Final residual = 0.003087806436, No Iterations 1
DILUPBiCGStab:  Solving for Uz, Initial residual = 0.05712074243, Final residual = 0.001227490296, No Iterations 1
Before reaction->correct():
Time before reaction
ExecutionTime = 152.25 s  ClockTime = 152 s

Time after reaction
ExecutionTime = 154.96 s  ClockTime = 155 s

Done reaction->correct():
DILUPBiCGStab:  Solving for CH4, Initial residual = 0.0151917533, Final residual = 0.0004366683973, No Iterations 1
DILUPBiCGStab:  Solving for CH2, Initial residual = 0.01704693806, Final residual = 0.0004664146615, No Iterations 1
DILUPBiCGStab:  Solving for H2, Initial residual = 0.02753644315, Final residual = 0.001064967831, No Iterations 2
DILUPBiCGStab:  Solving for O2, Initial residual = 0.02168559106, Final residual = 0.0003699540617, No Iterations 2
DILUPBiCGStab:  Solving for CO, Initial residual = 0.09394475358, Final residual = 0.00256786604, No Iterations 1
DILUPBiCGStab:  Solving for CO2, Initial residual = 0.03436743647, Final residual = 0.0005674555184, No Iterations 2
DILUPBiCGStab:  Solving for H2O, Initial residual = 0.02104665833, Final residual = 0.0004997019836, No Iterations 2
 In EEqn.H: min/max(T) = 300, 2157.501235
   Min Q:-197202245.8
   Max Q:4870109269
  Before: min/max(he) = 2093.941177, 2529779.086
DILUPBiCGStab:  Solving for h, Initial residual = 0.01521159419, Final residual = 0.0003397031868, No Iterations 2
After: min/max(he) = 2085.330459, 2682505.796
In thermoCorrectByCantera.h
Before bnds
Before patch loop
Ended thermoCorrect
min/max(T) = 300, 2254.955669
Min Q:-197202245.8
Max Q:4870109269
DICPCG:  Solving for p, Initial residual = 0.7163673687, Final residual = 0.007053596738, No Iterations 117
diagonal:  Solving for rho, Initial residual = 0, Final residual = 0, No Iterations 0
time step continuity errors : sum local = 1.290929787e-05, global = 1.448186491e-08, cumulative = -2.657771835e-05
DICPCG:  Solving for p, Initial residual = 0.2144256182, Final residual = 9.732466987e-06, No Iterations 171
diagonal:  Solving for rho, Initial residual = 0, Final residual = 0, No Iterations 0
time step continuity errors : sum local = 1.124809275e-08, global = 7.961565226e-12, cumulative = -2.657771039e-05
ExecutionTime = 160.28 s  ClockTime = 160 s

    min/max/integ(Walls) = -248177.9478, -49.01299078, -0.7518099282
Courant Number mean: 0.07349869133 max: 1.176125651
deltaT = 2.204746465e-05
---NormalisedGradT: min = min(normalisedGradT) [0 0 0 0 0 0 0] 2.029076734e-08   max = max(normalisedGradT) [0 0 0 0 0 0 0] 1
Time = 0.00126276

Before mesh update
Time before mesh update
ExecutionTime = 160.43 s  ClockTime = 160 s

Time after mesh update
ExecutionTime = 160.43 s  ClockTime = 160 s

After mesh update: 0
diagonal:  Solving for rho, Initial residual = 0, Final residual = 0, No Iterations 0
PIMPLE: iteration 1
DILUPBiCGStab:  Solving for Ux, Initial residual = 0.06225623253, Final residual = 0.002881445137, No Iterations 1
DILUPBiCGStab:  Solving for Uy, Initial residual = 0.09076666263, Final residual = 0.004437870231, No Iterations 1
DILUPBiCGStab:  Solving for Uz, Initial residual = 0.02552156453, Final residual = 0.0008892938852, No Iterations 1
Before reaction->correct():
Time before reaction
ExecutionTime = 161.06 s  ClockTime = 161 s

Time after reaction
ExecutionTime = 163.99 s  ClockTime = 164 s

Done reaction->correct():
DILUPBiCGStab:  Solving for CH4, Initial residual = 0.01056937595, Final residual = 0.0002745658037, No Iterations 1
DILUPBiCGStab:  Solving for CH2, Initial residual = 0.01280860623, Final residual = 0.0004772824459, No Iterations 1
DILUPBiCGStab:  Solving for H2, Initial residual = 0.01997704054, Final residual = 0.0005842651253, No Iterations 2
DILUPBiCGStab:  Solving for O2, Initial residual = 0.01424733633, Final residual = 0.0002185531679, No Iterations 2
DILUPBiCGStab:  Solving for CO, Initial residual = 0.07532987266, Final residual = 0.001589131895, No Iterations 1
DILUPBiCGStab:  Solving for CO2, Initial residual = 0.02235570737, Final residual = 0.0003188697394, No Iterations 2
DILUPBiCGStab:  Solving for H2O, Initial residual = 0.01392625444, Final residual = 0.0002917871622, No Iterations 2
 In EEqn.H: min/max(T) = 300, 2254.955669
   Min Q:-190554523.8
   Max Q:5079101388
  Before: min/max(he) = 2085.330459, 2682505.796
DILUPBiCGStab:  Solving for h, Initial residual = 0.01029120824, Final residual = 0.0001969950309, No Iterations 2
After: min/max(he) = 2077.526707, 2793894.693
In thermoCorrectByCantera.h
Before bnds
Before patch loop
Ended thermoCorrect
min/max(T) = 300, 2325.782575
Min Q:-190554523.8
Max Q:5079101388
DICPCG:  Solving for p, Initial residual = 0.6940425397, Final residual = 0.006224343994, No Iterations 112
diagonal:  Solving for rho, Initial residual = 0, Final residual = 0, No Iterations 0
time step continuity errors : sum local = 8.04150489e-06, global = 4.095430608e-09, cumulative = -2.657361496e-05
DICPCG:  Solving for p, Initial residual = 0.1078066859, Final residual = 9.883798559e-06, No Iterations 165
diagonal:  Solving for rho, Initial residual = 0, Final residual = 0, No Iterations 0
time step continuity errors : sum local = 1.34518016e-08, global = 8.786138161e-13, cumulative = -2.657361408e-05
ExecutionTime = 169.15 s  ClockTime = 169 s

    min/max/integ(Walls) = -275241.9891, -64.75731234, -0.8069698954
Courant Number mean: 0.0526180555 max: 1.09175222
deltaT = 2.019456819e-05
---NormalisedGradT: min = min(normalisedGradT) [0 0 0 0 0 0 0] 2.056391102e-09   max = max(normalisedGradT) [0 0 0 0 0 0 0] 1
Time = 0.00128295

Before mesh update
Time before mesh update
ExecutionTime = 169.3 s  ClockTime = 169 s

Time after mesh update
ExecutionTime = 169.3 s  ClockTime = 169 s

After mesh update: 0
diagonal:  Solving for rho, Initial residual = 0, Final residual = 0, No Iterations 0
PIMPLE: iteration 1
DILUPBiCGStab:  Solving for Ux, Initial residual = 0.2161207473, Final residual = 0.005931436403, No Iterations 1
DILUPBiCGStab:  Solving for Uy, Initial residual = 0.6404455082, Final residual = 0.02512262634, No Iterations 1
DILUPBiCGStab:  Solving for Uz, Initial residual = 0.04590742285, Final residual = 0.001089456763, No Iterations 1
Before reaction->correct():
Time before reaction
ExecutionTime = 169.95 s  ClockTime = 170 s

Time after reaction
ExecutionTime = 173.09 s  ClockTime = 173 s

Done reaction->correct():
DILUPBiCGStab:  Solving for CH4, Initial residual = 0.007491741815, Final residual = 0.0001781491346, No Iterations 1
DILUPBiCGStab:  Solving for CH2, Initial residual = 0.01032499716, Final residual = 0.0004892214005, No Iterations 1
DILUPBiCGStab:  Solving for H2, Initial residual = 0.01513078838, Final residual = 0.0007153581976, No Iterations 2
DILUPBiCGStab:  Solving for O2, Initial residual = 0.01013262284, Final residual = 0.0001475934356, No Iterations 2
DILUPBiCGStab:  Solving for CO, Initial residual = 0.05011442392, Final residual = 0.001077344816, No Iterations 1
DILUPBiCGStab:  Solving for CO2, Initial residual = 0.01716250693, Final residual = 0.0002265816198, No Iterations 2
DILUPBiCGStab:  Solving for H2O, Initial residual = 0.009909890114, Final residual = 0.0001903271689, No Iterations 2
 In EEqn.H: min/max(T) = 300, 2325.782575
   Min Q:-176867581.7
   Max Q:5135764946
  Before: min/max(he) = 2077.526707, 2793894.693
DILUPBiCGStab:  Solving for h, Initial residual = 0.00697752955, Final residual = 0.0001264640171, No Iterations 2
After: min/max(he) = 2071.431634, 2879651.741
In thermoCorrectByCantera.h
Before bnds
Before patch loop
Ended thermoCorrect
min/max(T) = 300, 2380.005731
Min Q:-176867581.7
Max Q:5135764946
DICPCG:  Solving for p, Initial residual = 0.2997265331, Final residual = 0.002901076546, No Iterations 101
diagonal:  Solving for rho, Initial residual = 0, Final residual = 0, No Iterations 0
time step continuity errors : sum local = 3.368929158e-06, global = -1.87217218e-10, cumulative = -2.65738013e-05
DICPCG:  Solving for p, Initial residual = 0.05963534565, Final residual = 9.573871371e-06, No Iterations 161
diagonal:  Solving for rho, Initial residual = 0, Final residual = 0, No Iterations 0
time step continuity errors : sum local = 1.294511357e-08, global = -3.492966548e-12, cumulative = -2.657380479e-05
ExecutionTime = 178.08 s  ClockTime = 178 s

    min/max/integ(Walls) = -306007.111, -65.58587199, -0.8532527849
Courant Number mean: 0.05134435943 max: 1.056956769
deltaT = 1.910633318e-05
---NormalisedGradT: min = min(normalisedGradT) [0 0 0 0 0 0 0] 2.638351578e-08   max = max(normalisedGradT) [0 0 0 0 0 0 0] 1
Time = 0.00130206

Before mesh update
Time before mesh update
ExecutionTime = 178.23 s  ClockTime = 178 s

Time after mesh update
ExecutionTime = 178.23 s  ClockTime = 178 s

After mesh update: 0
diagonal:  Solving for rho, Initial residual = 0, Final residual = 0, No Iterations 0
PIMPLE: iteration 1
DILUPBiCGStab:  Solving for Ux, Initial residual = 0.2684008013, Final residual = 0.002050404709, No Iterations 1
DILUPBiCGStab:  Solving for Uy, Initial residual = 0.5833108074, Final residual = 0.01862657323, No Iterations 1
DILUPBiCGStab:  Solving for Uz, Initial residual = 0.05946214224, Final residual = 0.0009155170774, No Iterations 1
Before reaction->correct():
Time before reaction
ExecutionTime = 178.88 s  ClockTime = 178 s

Time after reaction
ExecutionTime = 182.18 s  ClockTime = 182 s

Done reaction->correct():
DILUPBiCGStab:  Solving for CH4, Initial residual = 0.005624236747, Final residual = 0.0001358435489, No Iterations 1
DILUPBiCGStab:  Solving for CH2, Initial residual = 0.008537387751, Final residual = 0.0001504426138, No Iterations 2
DILUPBiCGStab:  Solving for H2, Initial residual = 0.01179875006, Final residual = 0.0003184532425, No Iterations 2
DILUPBiCGStab:  Solving for O2, Initial residual = 0.008271163235, Final residual = 0.000119369468, No Iterations 2
DILUPBiCGStab:  Solving for CO, Initial residual = 0.04169540978, Final residual = 0.0008462182263, No Iterations 1
DILUPBiCGStab:  Solving for CO2, Initial residual = 0.01396189067, Final residual = 0.000166978751, No Iterations 2
DILUPBiCGStab:  Solving for H2O, Initial residual = 0.007946490864, Final residual = 0.0001508963935, No Iterations 2
 In EEqn.H: min/max(T) = 300, 2380.005731
   Min Q:-173412038.4
   Max Q:5023589883
  Before: min/max(he) = 2071.431634, 2879651.741
DILUPBiCGStab:  Solving for h, Initial residual = 0.005413043788, Final residual = 9.684737914e-05, No Iterations 2
After: min/max(he) = 2066.372168, 2953696.472
In thermoCorrectByCantera.h
Before bnds
Before patch loop
Ended thermoCorrect
min/max(T) = 300, 2427.27074
Min Q:-173412038.4
Max Q:5023589883
DICPCG:  Solving for p, Initial residual = 0.5839786802, Final residual = 0.00528839711, No Iterations 106
diagonal:  Solving for rho, Initial residual = 0, Final residual = 0, No Iterations 0
time step continuity errors : sum local = 5.939416157e-06, global = 1.158072298e-09, cumulative = -2.657264672e-05
DICPCG:  Solving for p, Initial residual = 0.07872527815, Final residual = 9.19990553e-06, No Iterations 153
diagonal:  Solving for rho, Initial residual = 0, Final residual = 0, No Iterations 0
time step continuity errors : sum local = 7.899562386e-09, global = 4.151951458e-12, cumulative = -2.657264257e-05
ExecutionTime = 187.25 s  ClockTime = 187 s

    min/max/integ(Walls) = -340648.3156, -47.29342419, -0.8928071049
Courant Number mean: 0.06051452443 max: 1.022280967
deltaT = 1.868990404e-05
---NormalisedGradT: min = min(normalisedGradT) [0 0 0 0 0 0 0] 1.189480342e-08   max = max(normalisedGradT) [0 0 0 0 0 0 0] 1
Time = 0.00132075

Before mesh update
Time before mesh update
ExecutionTime = 187.4 s  ClockTime = 187 s

Time after mesh update
ExecutionTime = 187.4 s  ClockTime = 187 s

After mesh update: 0
diagonal:  Solving for rho, Initial residual = 0, Final residual = 0, No Iterations 0
PIMPLE: iteration 1
DILUPBiCGStab:  Solving for Ux, Initial residual = 0.1790509554, Final residual = 0.0009951142448, No Iterations 1
DILUPBiCGStab:  Solving for Uy, Initial residual = 0.2442244554, Final residual = 0.006727226206, No Iterations 1
DILUPBiCGStab:  Solving for Uz, Initial residual = 0.03833884231, Final residual = 0.0004180144492, No Iterations 1
Before reaction->correct():
Time before reaction
ExecutionTime = 188.02 s  ClockTime = 188 s

Time after reaction
ExecutionTime = 191.46 s  ClockTime = 191 s

Done reaction->correct():
DILUPBiCGStab:  Solving for CH4, Initial residual = 0.004782899194, Final residual = 0.0001217702986, No Iterations 1
DILUPBiCGStab:  Solving for CH2, Initial residual = 0.007814417657, Final residual = 0.000138050254, No Iterations 2
DILUPBiCGStab:  Solving for H2, Initial residual = 0.009868348388, Final residual = 0.0003888489826, No Iterations 2
[...]
DILUPBiCGStab:  Solving for O2, Initial residual = 0.001965022724, Final residual = 9.258088905e-05, No Iterations 2
DILUPBiCGStab:  Solving for CO, Initial residual = 0.009078516805, Final residual = 0.0003624713451, No Iterations 2
DILUPBiCGStab:  Solving for CO2, Initial residual = 0.001665222881, Final residual = 7.44839427e-05, No Iterations 2
DILUPBiCGStab:  Solving for H2O, Initial residual = 0.002158171088, Final residual = 5.871646055e-05, No Iterations 3
 In EEqn.H: min/max(T) = 299.9964651, 1656.477713
   Min Q:-17191525.33
   Max Q:505825602.7
  Before: min/max(he) = 2010.799338, 1768405.097
DILUPBiCGStab:  Solving for h, Initial residual = 0.002724226485, Final residual = 7.045405796e-05, No Iterations 3
After: min/max(he) = 2010.662184, 1768887.049
In thermoCorrectByCantera.h
Before bnds
Before patch loop
Ended thermoCorrect
min/max(T) = 299.9970861, 1656.86343
Min Q:-17191525.33
Max Q:505825602.7
DICPCG:  Solving for p, Initial residual = 0.2716347206, Final residual = 0.002693928009, No Iterations 179
diagonal:  Solving for rho, Initial residual = 0, Final residual = 0, No Iterations 0
time step continuity errors : sum local = 5.976936941e-07, global = -1.750997903e-10, cumulative = -2.704183635e-05
DICPCG:  Solving for p, Initial residual = 0.2341882905, Final residual = 9.095492596e-06, No Iterations 256
diagonal:  Solving for rho, Initial residual = 0, Final residual = 0, No Iterations 0
time step continuity errors : sum local = 1.992350351e-09, global = -1.39057012e-13, cumulative = -2.704183649e-05
ExecutionTime = 9311.61 s  ClockTime = 9313 s

    min/max/integ(Walls) = -94919.16312, 0.4096423414, -9.768035835
Courant Number mean: 0.3829789999 max: 1.007885372
deltaT = 0.0001547729229
---NormalisedGradT: min = min(normalisedGradT) [0 0 0 0 0 0 0] 5.954833722e-08   max = max(normalisedGradT) [0 0 0 0 0 0 0] 1
Time = 0.0442731

Before mesh update
Time before mesh update
ExecutionTime = 9311.76 s  ClockTime = 9313 s

Time after mesh update
ExecutionTime = 9311.76 s  ClockTime = 9313 s

After mesh update: 0
diagonal:  Solving for rho, Initial residual = 0, Final residual = 0, No Iterations 0
PIMPLE: iteration 1
DILUPBiCGStab:  Solving for Ux, Initial residual = 0.002948130863, Final residual = 8.654841701e-05, No Iterations 2
DILUPBiCGStab:  Solving for Uy, Initial residual = 0.008011237691, Final residual = 0.0003765677185, No Iterations 2
DILUPBiCGStab:  Solving for Uz, Initial residual = 0.0145375726, Final residual = 0.0003668198165, No Iterations 2
Before reaction->correct():
Time before reaction
ExecutionTime = 9312.45 s  ClockTime = 9314 s

Time after reaction
ExecutionTime = 9325.12 s  ClockTime = 9327 s

Done reaction->correct():
DILUPBiCGStab:  Solving for CH4, Initial residual = 0.002196975061, Final residual = 9.647917119e-05, No Iterations 2
DILUPBiCGStab:  Solving for CH2, Initial residual = 0.006878773366, Final residual = 0.0002940501904, No Iterations 2
DILUPBiCGStab:  Solving for H2, Initial residual = 0.003558897228, Final residual = 0.0001593816186, No Iterations 3
DILUPBiCGStab:  Solving for O2, Initial residual = 0.001968776922, Final residual = 9.289831268e-05, No Iterations 2
DILUPBiCGStab:  Solving for CO, Initial residual = 0.008968838619, Final residual = 0.0003359402241, No Iterations 2
DILUPBiCGStab:  Solving for CO2, Initial residual = 0.001661736348, Final residual = 7.395946838e-05, No Iterations 2
DILUPBiCGStab:  Solving for H2O, Initial residual = 0.002164909148, Final residual = 5.919632394e-05, No Iterations 3
 In EEqn.H: min/max(T) = 299.9970861, 1656.86343
   Min Q:-17222299.18
   Max Q:507738426.8
  Before: min/max(he) = 2010.662184, 1768887.049
DILUPBiCGStab:  Solving for h, Initial residual = 0.002703139831, Final residual = 6.92886543e-05, No Iterations 3
After: min/max(he) = 2010.49261, 1769389.482
In thermoCorrectByCantera.h
Before bnds
Before patch loop
Ended thermoCorrect
min/max(T) = 299.9974425, 1657.247196
Min Q:-17222299.18
Max Q:507738426.8
DICPCG:  Solving for p, Initial residual = 0.200130322, Final residual = 0.001874533811, No Iterations 210
diagonal:  Solving for rho, Initial residual = 0, Final residual = 0, No Iterations 0
time step continuity errors : sum local = 3.522313673e-07, global = 1.192034243e-10, cumulative = -2.704171729e-05
DICPCG:  Solving for p, Initial residual = 0.1485373555, Final residual = 9.177343871e-06, No Iterations 254
diagonal:  Solving for rho, Initial residual = 0, Final residual = 0, No Iterations 0
time step continuity errors : sum local = 1.839037331e-09, global = -4.150898764e-13, cumulative = -2.70417177e-05
ExecutionTime = 9332.32 s  ClockTime = 9334 s

    min/max/integ(Walls) = -95021.52476, 0.4050774656, -9.794357826
Courant Number mean: 0.3814665002 max: 1.000065604
deltaT = 0.0001547627699
---NormalisedGradT: min = min(normalisedGradT) [0 0 0 0 0 0 0] 5.713676318e-09   max = max(normalisedGradT) [0 0 0 0 0 0 0] 1
Time = 0.0444279

Before mesh update
Time before mesh update
ExecutionTime = 9332.48 s  ClockTime = 9334 s

Time after mesh update
ExecutionTime = 9332.48 s  ClockTime = 9334 s

After mesh update: 0
diagonal:  Solving for rho, Initial residual = 0, Final residual = 0, No Iterations 0
PIMPLE: iteration 1
DILUPBiCGStab:  Solving for Ux, Initial residual = 0.004394998776, Final residual = 0.0001336222954, No Iterations 2
DILUPBiCGStab:  Solving for Uy, Initial residual = 0.006982804479, Final residual = 0.0002411353721, No Iterations 2
DILUPBiCGStab:  Solving for Uz, Initial residual = 0.01139747883, Final residual = 0.0004984855846, No Iterations 2
Before reaction->correct():
Time before reaction
ExecutionTime = 9333.19 s  ClockTime = 9335 s

Time after reaction
ExecutionTime = 9346.31 s  ClockTime = 9348 s

Done reaction->correct():
DILUPBiCGStab:  Solving for CH4, Initial residual = 0.002212142523, Final residual = 9.547912425e-05, No Iterations 2
DILUPBiCGStab:  Solving for CH2, Initial residual = 0.006979736922, Final residual = 0.0003011749325, No Iterations 2
DILUPBiCGStab:  Solving for H2, Initial residual = 0.003594557527, Final residual = 0.0001567773416, No Iterations 3
DILUPBiCGStab:  Solving for O2, Initial residual = 0.001979023552, Final residual = 9.248574965e-05, No Iterations 2
DILUPBiCGStab:  Solving for CO, Initial residual = 0.009051412087, Final residual = 0.0003557648283, No Iterations 2
DILUPBiCGStab:  Solving for CO2, Initial residual = 0.001674435296, Final residual = 7.425775717e-05, No Iterations 2
DILUPBiCGStab:  Solving for H2O, Initial residual = 0.002174741626, Final residual = 0.0001087211085, No Iterations 2
 In EEqn.H: min/max(T) = 299.9974425, 1657.247196
   Min Q:-17196977.31
   Max Q:507478223.4
  Before: min/max(he) = 2010.49261, 1769389.482
DILUPBiCGStab:  Solving for h, Initial residual = 0.002711018613, Final residual = 6.93161551e-05, No Iterations 3
After: min/max(he) = 2010.310807, 1769654.259
In thermoCorrectByCantera.h
Before bnds
Before patch loop
Ended thermoCorrect
min/max(T) = 299.997945, 1657.486914
Min Q:-17196977.31
Max Q:507478223.4
DICPCG:  Solving for p, Initial residual = 0.2335735231, Final residual = 0.002315119941, No Iterations 177
diagonal:  Solving for rho, Initial residual = 0, Final residual = 0, No Iterations 0
time step continuity errors : sum local = 5.012698198e-07, global = 1.728025494e-10, cumulative = -2.70415449e-05
DICPCG:  Solving for p, Initial residual = 0.2008233099, Final residual = 8.892402036e-06, No Iterations 256
diagonal:  Solving for rho, Initial residual = 0, Final residual = 0, No Iterations 0
time step continuity errors : sum local = 1.937112323e-09, global = -2.742314969e-13, cumulative = -2.704154518e-05
ExecutionTime = 9353.05 s  ClockTime = 9355 s

volFieldValue Qdot_volIntegrate write:
    volIntegrate(region0) of Qdot = 12.36427145

volFieldValue AFlame_volIntegrate write:
    volIntegrate(region0) of interfaceAreaFlame = 8.150723273e-05

    min/max/integ(Walls) = -95102.61242, 0.3071417966, -9.821303858
wallHeatFlux wallHeatFlux1 write:
    writing field wallHeatFlux
volFieldValue volFieldValue1 write:
    max(region0) of Qdot = 507478223.4

Courant Number mean: 0.3835686146 max: 1.005288358
deltaT = 0.0001539486345
---NormalisedGradT: min = min(normalisedGradT) [0 0 0 0 0 0 0] 2.426483213e-08   max = max(normalisedGradT) [0 0 0 0 0 0 0] 1
Time = 0.0445819

Before mesh update
Time before mesh update
ExecutionTime = 9353.21 s  ClockTime = 9355 s

Time after mesh update
ExecutionTime = 9353.21 s  ClockTime = 9355 s

After mesh update: 0
diagonal:  Solving for rho, Initial residual = 0, Final residual = 0, No Iterations 0
PIMPLE: iteration 1
DILUPBiCGStab:  Solving for Ux, Initial residual = 0.003431032164, Final residual = 9.291026148e-05, No Iterations 2
DILUPBiCGStab:  Solving for Uy, Initial residual = 0.008028448183, Final residual = 0.0002752757974, No Iterations 2
DILUPBiCGStab:  Solving for Uz, Initial residual = 0.01426428142, Final residual = 0.0003829938984, No Iterations 2
Before reaction->correct():
Time before reaction
ExecutionTime = 9353.89 s  ClockTime = 9356 s

Time after reaction
ExecutionTime = 9366.42 s  ClockTime = 9368 s

Done reaction->correct():
DILUPBiCGStab:  Solving for CH4, Initial residual = 0.002224471494, Final residual = 9.640444086e-05, No Iterations 2
DILUPBiCGStab:  Solving for CH2, Initial residual = 0.006972928228, Final residual = 0.000298733406, No Iterations 2
DILUPBiCGStab:  Solving for H2, Initial residual = 0.003611667095, Final residual = 0.0001591459022, No Iterations 3
DILUPBiCGStab:  Solving for O2, Initial residual = 0.001988587012, Final residual = 9.300430705e-05, No Iterations 2
DILUPBiCGStab:  Solving for CO, Initial residual = 0.008975439073, Final residual = 0.0003228782223, No Iterations 2
DILUPBiCGStab:  Solving for CO2, Initial residual = 0.001677813663, Final residual = 7.391921639e-05, No Iterations 2
DILUPBiCGStab:  Solving for H2O, Initial residual = 0.002186850094, Final residual = 5.849517864e-05, No Iterations 3
 In EEqn.H: min/max(T) = 299.997945, 1657.486914
   Min Q:-17202106.37
   Max Q:510094244
  Before: min/max(he) = 2010.310807, 1769654.259
DILUPBiCGStab:  Solving for h, Initial residual = 0.002705727495, Final residual = 6.897458524e-05, No Iterations 3
After: min/max(he) = 2010.159811, 1770059.809
In thermoCorrectByCantera.h
Before bnds
Before patch loop
Ended thermoCorrect
min/max(T) = 299.9982136, 1657.746738
Min Q:-17202106.37
Max Q:510094244
DICPCG:  Solving for p, Initial residual = 0.2165317098, Final residual = 0.002047523809, No Iterations 195
diagonal:  Solving for rho, Initial residual = 0, Final residual = 0, No Iterations 0
time step continuity errors : sum local = 3.955010071e-07, global = 6.151679724e-10, cumulative = -2.704093001e-05
DICPCG:  Solving for p, Initial residual = 0.15358257, Final residual = 9.432405552e-06, No Iterations 245
diagonal:  Solving for rho, Initial residual = 0, Final residual = 0, No Iterations 0
time step continuity errors : sum local = 1.949945777e-09, global = 3.388135983e-12, cumulative = -2.704092662e-05
ExecutionTime = 9373.06 s  ClockTime = 9375 s

    min/max/integ(Walls) = -95160.4796, 0.3359092281, -9.848065446
Courant Number mean: 0.3828662873 max: 1.000803966
deltaT = 0.0001538249644
---NormalisedGradT: min = min(normalisedGradT) [0 0 0 0 0 0 0] 5.634961091e-09   max = max(normalisedGradT) [0 0 0 0 0 0 0] 1
Time = 0.0447357

Before mesh update
Time before mesh update
ExecutionTime = 9373.21 s  ClockTime = 9375 s

Time after mesh update
ExecutionTime = 9373.21 s  ClockTime = 9375 s

After mesh update: 0
diagonal:  Solving for rho, Initial residual = 0, Final residual = 0, No Iterations 0
PIMPLE: iteration 1
DILUPBiCGStab:  Solving for Ux, Initial residual = 0.004634544775, Final residual = 0.0001440150505, No Iterations 2
DILUPBiCGStab:  Solving for Uy, Initial residual = 0.007432287184, Final residual = 0.000251859893, No Iterations 2
DILUPBiCGStab:  Solving for Uz, Initial residual = 0.01138500311, Final residual = 0.0004367107562, No Iterations 2
Before reaction->correct():
Time before reaction
ExecutionTime = 9373.86 s  ClockTime = 9376 s

Time after reaction
ExecutionTime = 9386.48 s  ClockTime = 9388 s

Done reaction->correct():
DILUPBiCGStab:  Solving for CH4, Initial residual = 0.002237968295, Final residual = 9.611030953e-05, No Iterations 2
DILUPBiCGStab:  Solving for CH2, Initial residual = 0.007049722634, Final residual = 0.0003040575564, No Iterations 2
DILUPBiCGStab:  Solving for H2, Initial residual = 0.003646776666, Final residual = 0.0001585124395, No Iterations 3
DILUPBiCGStab:  Solving for O2, Initial residual = 0.002000845299, Final residual = 9.307834279e-05, No Iterations 2
DILUPBiCGStab:  Solving for CO, Initial residual = 0.009163584559, Final residual = 0.0003596457613, No Iterations 2
DILUPBiCGStab:  Solving for CO2, Initial residual = 0.001690939377, Final residual = 7.437550379e-05, No Iterations 2
DILUPBiCGStab:  Solving for H2O, Initial residual = 0.002200082556, Final residual = 0.0001096100317, No Iterations 2
 In EEqn.H: min/max(T) = 299.9982136, 1657.746738
   Min Q:-17192197.36
   Max Q:509719846.4
  Before: min/max(he) = 2010.159811, 1770059.809
DILUPBiCGStab:  Solving for h, Initial residual = 0.002719891342, Final residual = 6.935185189e-05, No Iterations 3
After: min/max(he) = 2009.994725, 1770506.773
In thermoCorrectByCantera.h
Before bnds
Before patch loop
Ended thermoCorrect
min/max(T) = 299.9986419, 1658.146431
Min Q:-17192197.36
Max Q:509719846.4
DICPCG:  Solving for p, Initial residual = 0.2379131677, Final residual = 0.002148975779, No Iterations 205
diagonal:  Solving for rho, Initial residual = 0, Final residual = 0, No Iterations 0
time step continuity errors : sum local = 4.616107395e-07, global = -4.603776552e-10, cumulative = -2.7041387e-05
DICPCG:  Solving for p, Initial residual = 0.1993364967, Final residual = 8.574253261e-06, No Iterations 255
diagonal:  Solving for rho, Initial residual = 0, Final residual = 0, No Iterations 0
time step continuity errors : sum local = 1.835521943e-09, global = 3.000629988e-14, cumulative = -2.704138697e-05
ExecutionTime = 9393.3 s  ClockTime = 9395 s

    min/max/integ(Walls) = -95209.8671, 0.2430630785, -9.875360169
Courant Number mean: 0.3851024762 max: 1.006655366
deltaT = 0.0001528079714
---NormalisedGradT: min = min(normalisedGradT) [0 0 0 0 0 0 0] 2.497717722e-08   max = max(normalisedGradT) [0 0 0 0 0 0 0] 1
Time = 0.0448885

Before mesh update
Time before mesh update
ExecutionTime = 9393.45 s  ClockTime = 9395 s

Time after mesh update
ExecutionTime = 9393.45 s  ClockTime = 9395 s

After mesh update: 0
diagonal:  Solving for rho, Initial residual = 0, Final residual = 0, No Iterations 0
PIMPLE: iteration 1
DILUPBiCGStab:  Solving for Ux, Initial residual = 0.00272120259, Final residual = 8.042465958e-05, No Iterations 2
DILUPBiCGStab:  Solving for Uy, Initial residual = 0.007829818919, Final residual = 0.0003659087159, No Iterations 2
DILUPBiCGStab:  Solving for Uz, Initial residual = 0.01379802989, Final residual = 0.0006736752725, No Iterations 2
Before reaction->correct():
Time before reaction
ExecutionTime = 9394.12 s  ClockTime = 9396 s

Time after reaction
ExecutionTime = 9406.7 s  ClockTime = 9408 s

Done reaction->correct():
DILUPBiCGStab:  Solving for CH4, Initial residual = 0.002245359679, Final residual = 9.689979208e-05, No Iterations 2
DILUPBiCGStab:  Solving for CH2, Initial residual = 0.007037687729, Final residual = 0.0002992649747, No Iterations 2
DILUPBiCGStab:  Solving for H2, Initial residual = 0.003661288382, Final residual = 0.0001614656446, No Iterations 3
DILUPBiCGStab:  Solving for O2, Initial residual = 0.002007395861, Final residual = 9.340929584e-05, No Iterations 2
DILUPBiCGStab:  Solving for CO, Initial residual = 0.009102992879, Final residual = 0.0003345951199, No Iterations 2
DILUPBiCGStab:  Solving for CO2, Initial residual = 0.001690929467, Final residual = 7.404195146e-05, No Iterations 2
DILUPBiCGStab:  Solving for H2O, Initial residual = 0.002209744732, Final residual = 5.87003808e-05, No Iterations 3
 In EEqn.H: min/max(T) = 299.9986419, 1658.146431
   Min Q:-17191629.78
   Max Q:511958251.8
  Before: min/max(he) = 2009.994725, 1770506.773
DILUPBiCGStab:  Solving for h, Initial residual = 0.002706572887, Final residual = 6.84801772e-05, No Iterations 3
After: min/max(he) = 2009.860114, 1770953.066
In thermoCorrectByCantera.h
Before bnds
Before patch loop
Ended thermoCorrect
min/max(T) = 299.9989264, 1658.532124
Min Q:-17191629.78
Max Q:511958251.8
DICPCG:  Solving for p, Initial residual = 0.1698386746, Final residual = 0.001620073312, No Iterations 209
diagonal:  Solving for rho, Initial residual = 0, Final residual = 0, No Iterations 0
time step continuity errors : sum local = 3.052768607e-07, global = 1.413007059e-10, cumulative = -2.704124567e-05
DICPCG:  Solving for p, Initial residual = 0.1231740692, Final residual = 8.302850562e-06, No Iterations 254
diagonal:  Solving for rho, Initial residual = 0, Final residual = 0, No Iterations 0
time step continuity errors : sum local = 1.668178033e-09, global = -2.036494274e-13, cumulative = -2.704124587e-05
ExecutionTime = 9413.86 s  ClockTime = 9416 s

    min/max/integ(Walls) = -95310.0426, 0.2359460467, -9.90253681
Courant Number mean: 0.3841544392 max: 1.000818292
deltaT = 0.0001526830321
---NormalisedGradT: min = min(normalisedGradT) [0 0 0 0 0 0 0] 1.773845371e-08   max = max(normalisedGradT) [0 0 0 0 0 0 0] 1
Time = 0.0450412

Before mesh update
Time before mesh update
ExecutionTime = 9414 s  ClockTime = 9416 s

Time after mesh update
ExecutionTime = 9414 s  ClockTime = 9416 s

After mesh update: 0
diagonal:  Solving for rho, Initial residual = 0, Final residual = 0, No Iterations 0
PIMPLE: iteration 1
DILUPBiCGStab:  Solving for Ux, Initial residual = 0.004215976918, Final residual = 0.0001283966484, No Iterations 2
DILUPBiCGStab:  Solving for Uy, Initial residual = 0.006975086736, Final residual = 0.0002393414482, No Iterations 2
DILUPBiCGStab:  Solving for Uz, Initial residual = 0.01159677546, Final residual = 0.0005083067826, No Iterations 2
Before reaction->correct():
Time before reaction
ExecutionTime = 9414.68 s  ClockTime = 9416 s

Time after reaction
ExecutionTime = 9427.49 s  ClockTime = 9429 s

Done reaction->correct():
DILUPBiCGStab:  Solving for CH4, Initial residual = 0.002259765023, Final residual = 9.611028671e-05, No Iterations 2
DILUPBiCGStab:  Solving for CH2, Initial residual = 0.007126076282, Final residual = 0.0003048247523, No Iterations 2
DILUPBiCGStab:  Solving for H2, Initial residual = 0.003696535324, Final residual = 0.0001597352974, No Iterations 3
DILUPBiCGStab:  Solving for O2, Initial residual = 0.002017110582, Final residual = 9.312326522e-05, No Iterations 2
DILUPBiCGStab:  Solving for CO, Initial residual = 0.00914939474, Final residual = 0.0003502702393, No Iterations 2
DILUPBiCGStab:  Solving for CO2, Initial residual = 0.001701521917, Final residual = 7.421895498e-05, No Iterations 2
DILUPBiCGStab:  Solving for H2O, Initial residual = 0.002220542464, Final residual = 0.0001097469937, No Iterations 2
 In EEqn.H: min/max(T) = 299.9989264, 1658.532124
   Min Q:-17198974.38
   Max Q:511385764.1
  Before: min/max(he) = 2009.860114, 1770953.066
DILUPBiCGStab:  Solving for h, Initial residual = 0.002711715461, Final residual = 6.845657326e-05, No Iterations 3
After: min/max(he) = 2009.709717, 1771219.709
In thermoCorrectByCantera.h
Before bnds
Before patch loop
Ended thermoCorrect
min/max(T) = 299.9992882, 1658.802041
Min Q:-17198974.38
Max Q:511385764.1
DICPCG:  Solving for p, Initial residual = 0.2170257105, Final residual = 0.002046177886, No Iterations 180
diagonal:  Solving for rho, Initial residual = 0, Final residual = 0, No Iterations 0
time step continuity errors : sum local = 4.370827445e-07, global = -9.917948816e-11, cumulative = -2.704134505e-05
