/*---------------------------------------------------------------------------*\
| =========                 |                                                 |
| \\      /  F ield         | OpenFOAM: The Open Source CFD Toolbox           |
|  \\    /   O peration     | Version:  2406                                  |
|   \\  /    A nd           | Website:  www.openfoam.com                      |
|    \\/     M anipulation  |                                                 |
\*---------------------------------------------------------------------------*/
Build  : _630d60de3b-20240620 OPENFOAM=2406 version=v2406
Arch   : "LSB;label=32;scalar=64"
Exec   : reactingCTDyMFoam
Date   : May 27 2025
Time   : 10:37:00
Host   : i9900
PID    : 1174314
I/O    : uncollated
Case   : /home/tgd323/OpenFOAM/tgd323-v2406/run/H2/Phi=0_7_Xi=0_7_X640_Y240
nProcs : 1
trapFpe: Floating point exception trapping enabled (FOAM_SIGFPE).
fileModificationChecking : Monitoring run-time modified files using timeStampMaster (fileModificationSkew 5, maxFileModificationPolls 20)
allowSystemOperations : Allowing user-supplied system call operations

// * * * * * * * * * * * * * * * * * * * * * * * * * * * * * * * * * * * * * //
Create time

Create mesh for time = 0.336249


PIMPLE: Operating solver in PISO mode

Reading thermophysical properties

Selecting thermodynamics package 
{
    type            hePsiThermo;
    mixture         reactingMixture;
    transport       sutherland;
    thermo          janaf;
    energy          sensibleEnthalpy;
    equationOfState perfectGas;
    specie          specie;
}

Selecting chemistryReader foamChemistryReader
Reading field U

Reading/calculating face flux field phi

Creating turbulence model.

Selecting turbulence model type laminar
Selecting laminar stress model Stokes
Creating reaction model

Selecting combustion model laminar
Selecting chemistry solver 
{
    solver          EulerImplicit;
    method          standard;
}

StandardChemistryModel: Number of species = 8 and reactions = 6
    using integrated reaction rate
Creating field dpdt

Creating field kinetic energy K

No MRF models present

Creating finite volume options from "constant/fvOptions"

Selecting finite volume options type scalarSemiImplicitSource
    Source: energySource
    - selecting cells using cellSet ignition
    - selected 1129 cell(s) with volume 2.205078125e-09
Reading/calculating face velocity rhoUf

In thermoCorrectByCantera.h
Before bnds
Before patch loop
Ended thermoCorrect
Courant Number mean: 0.4390584981 max: 1.006064731

Starting time loop

wallHeatFlux wallHeatFlux1:
    processing all (1) wall patches

Courant Number mean: 0.4390584981 max: 1.006064731
deltaT = 0.0005893040328
---NormalisedGradT: min = min(normalisedGradT) [0 0 0 0 0 0 0] 1.77811436e-11   max = max(normalisedGradT) [0 0 0 0 0 0 0] 1
Time = 0.336838

Before mesh update
Time before mesh update
ExecutionTime = 7.44 s  ClockTime = 7 s

Time after mesh update
ExecutionTime = 7.44 s  ClockTime = 7 s

After mesh update: 0
diagonal:  Solving for rho, Initial residual = 0, Final residual = 0, No Iterations 0
PIMPLE: iteration 1
DILUPBiCGStab:  Solving for Ux, Initial residual = 0.005450014936, Final residual = 0.0001418583429, No Iterations 2
DILUPBiCGStab:  Solving for Uy, Initial residual = 0.01195473458, Final residual = 0.0003402810425, No Iterations 2
DILUPBiCGStab:  Solving for Uz, Initial residual = 0.01924818223, Final residual = 0.0007790347531, No Iterations 2
Before reaction->correct():
Time before reaction
ExecutionTime = 11.45 s  ClockTime = 11 s

Time after reaction
ExecutionTime = 16.41 s  ClockTime = 16 s

Done reaction->correct():
DILUPBiCGStab:  Solving for CH4, Initial residual = 0.0005825271168, Final residual = 2.791844279e-05, No Iterations 2
DILUPBiCGStab:  Solving for CH2, Initial residual = 0.002793395113, Final residual = 9.196374726e-05, No Iterations 2
DILUPBiCGStab:  Solving for H2, Initial residual = 0.0006512975142, Final residual = 2.374349396e-05, No Iterations 4
DILUPBiCGStab:  Solving for O2, Initial residual = 0.00186874567, Final residual = 6.975740928e-05, No Iterations 2
DILUPBiCGStab:  Solving for CO, Initial residual = 0.00370493835, Final residual = 0.0001833168125, No Iterations 2
DILUPBiCGStab:  Solving for CO2, Initial residual = 0.001812218145, Final residual = 8.24198137e-05, No Iterations 2
DILUPBiCGStab:  Solving for H2O, Initial residual = 0.001848293863, Final residual = 8.490226358e-05, No Iterations 2
 In EEqn.H: min/max(T) = 299.9989064, 1324.901826
   Min Q:-8043122.108
   Max Q:165173037.3
  Before: min/max(he) = 1868.431294, 1290508.697
DILUPBiCGStab:  Solving for h, Initial residual = 0.005561742933, Final residual = 0.000205134456, No Iterations 3
After: min/max(he) = 1868.455286, 1280365.402
In thermoCorrectByCantera.h
Before bnds
Before patch loop
Ended thermoCorrect
min/max(T) = 299.9989167, 1317.609335
Min Q:-8043122.108
Max Q:165173037.3
DICPCG:  Solving for p, Initial residual = 0.3998619739, Final residual = 0.003966263804, No Iterations 675
diagonal:  Solving for rho, Initial residual = 0, Final residual = 0, No Iterations 0
time step continuity errors : sum local = 6.173883656e-05, global = 5.468039085e-05, cumulative = 0.0001300542622
DICPCG:  Solving for p, Initial residual = 0.3278097288, Final residual = 9.845093008e-06, No Iterations 858
diagonal:  Solving for rho, Initial residual = 0, Final residual = 0, No Iterations 0
time step continuity errors : sum local = 6.173375559e-05, global = 5.468054125e-05, cumulative = 0.0001847348034
ExecutionTime = 99.85 s  ClockTime = 99 s

    min/max/integ(Walls) = -52198.04956, 0.20577822, -7.264095948
Courant Number mean: 0.4377913358 max: 1.003328213
deltaT = 0.0005873492098
---NormalisedGradT: min = min(normalisedGradT) [0 0 0 0 0 0 0] 1.049290105e-11   max = max(normalisedGradT) [0 0 0 0 0 0 0] 1
Time = 0.337426

Before mesh update
Time before mesh update
ExecutionTime = 100.51 s  ClockTime = 100 s

Time after mesh update
ExecutionTime = 100.51 s  ClockTime = 100 s

After mesh update: 0
diagonal:  Solving for rho, Initial residual = 0, Final residual = 0, No Iterations 0
PIMPLE: iteration 1
DILUPBiCGStab:  Solving for Ux, Initial residual = 0.005509281715, Final residual = 0.0002381429422, No Iterations 2
DILUPBiCGStab:  Solving for Uy, Initial residual = 0.01387179974, Final residual = 0.0004154044938, No Iterations 2
DILUPBiCGStab:  Solving for Uz, Initial residual = 0.01975075086, Final residual = 0.0007266365423, No Iterations 2
Before reaction->correct():
Time before reaction
ExecutionTime = 104.16 s  ClockTime = 104 s

Time after reaction
ExecutionTime = 108.92 s  ClockTime = 108 s

Done reaction->correct():
DILUPBiCGStab:  Solving for CH4, Initial residual = 0.0005744736664, Final residual = 2.823793236e-05, No Iterations 2
DILUPBiCGStab:  Solving for CH2, Initial residual = 0.002771701384, Final residual = 9.208698487e-05, No Iterations 2
DILUPBiCGStab:  Solving for H2, Initial residual = 0.0006417039635, Final residual = 2.253911593e-05, No Iterations 4
DILUPBiCGStab:  Solving for O2, Initial residual = 0.001860147069, Final residual = 6.892972364e-05, No Iterations 2
DILUPBiCGStab:  Solving for CO, Initial residual = 0.003684079845, Final residual = 7.583269451e-05, No Iterations 3
DILUPBiCGStab:  Solving for CO2, Initial residual = 0.001804400018, Final residual = 7.862412526e-05, No Iterations 1
DILUPBiCGStab:  Solving for H2O, Initial residual = 0.001839010675, Final residual = 8.426330245e-05, No Iterations 2
 In EEqn.H: min/max(T) = 299.9989167, 1317.609335
   Min Q:-7876573.277
   Max Q:163223315
  Before: min/max(he) = 1868.455286, 1280365.402
DILUPBiCGStab:  Solving for h, Initial residual = 0.005527697904, Final residual = 0.0002031328464, No Iterations 3
After: min/max(he) = 1868.605409, 1270405.811
In thermoCorrectByCantera.h
Before bnds
Before patch loop
Ended thermoCorrect
min/max(T) = 299.9991627, 1310.49428
Min Q:-7876573.277
Max Q:163223315
DICPCG:  Solving for p, Initial residual = 0.3103639243, Final residual = 0.003097520194, No Iterations 617
diagonal:  Solving for rho, Initial residual = 0, Final residual = 0, No Iterations 0
time step continuity errors : sum local = 1.783092007e-07, global = -2.202539428e-11, cumulative = 0.0001847347814
DICPCG:  Solving for p, Initial residual = 0.2357137034, Final residual = 9.777706431e-06, No Iterations 833
diagonal:  Solving for rho, Initial residual = 0, Final residual = 0, No Iterations 0
time step continuity errors : sum local = 2.626511714e-09, global = 4.558353642e-13, cumulative = 0.0001847347819
ExecutionTime = 188.57 s  ClockTime = 188 s

    min/max/integ(Walls) = -51454.7245, 0.07319227647, -7.116590681
Courant Number mean: 0.4369798922 max: 1.004300273
deltaT = 0.0005848342629
---NormalisedGradT: min = min(normalisedGradT) [0 0 0 0 0 0 0] 8.060810041e-12   max = max(normalisedGradT) [0 0 0 0 0 0 0] 1
Time = 0.33801

Before mesh update
Time before mesh update
ExecutionTime = 189.23 s  ClockTime = 189 s

Time after mesh update
ExecutionTime = 189.23 s  ClockTime = 189 s

After mesh update: 0
diagonal:  Solving for rho, Initial residual = 0, Final residual = 0, No Iterations 0
PIMPLE: iteration 1
DILUPBiCGStab:  Solving for Ux, Initial residual = 0.005050920159, Final residual = 0.0002141212146, No Iterations 2
DILUPBiCGStab:  Solving for Uy, Initial residual = 0.01280663174, Final residual = 0.0006169509476, No Iterations 2
DILUPBiCGStab:  Solving for Uz, Initial residual = 0.01687502118, Final residual = 0.0005524749871, No Iterations 2
Before reaction->correct():
Time before reaction
ExecutionTime = 192.81 s  ClockTime = 192 s

Time after reaction
ExecutionTime = 197.46 s  ClockTime = 197 s

Done reaction->correct():
DILUPBiCGStab:  Solving for CH4, Initial residual = 0.0005670207567, Final residual = 2.735406139e-05, No Iterations 2
DILUPBiCGStab:  Solving for CH2, Initial residual = 0.002741960784, Final residual = 9.044527425e-05, No Iterations 2
DILUPBiCGStab:  Solving for H2, Initial residual = 0.0006334420849, Final residual = 2.173663286e-05, No Iterations 4
DILUPBiCGStab:  Solving for O2, Initial residual = 0.001846376761, Final residual = 6.643493873e-05, No Iterations 2
DILUPBiCGStab:  Solving for CO, Initial residual = 0.003613844293, Final residual = 7.173755892e-05, No Iterations 3
DILUPBiCGStab:  Solving for CO2, Initial residual = 0.001794239919, Final residual = 8.361956407e-05, No Iterations 1
DILUPBiCGStab:  Solving for H2O, Initial residual = 0.001825454598, Final residual = 8.044889221e-05, No Iterations 2
 In EEqn.H: min/max(T) = 299.9991627, 1310.49428
   Min Q:-7739719.935
   Max Q:160130687.8
  Before: min/max(he) = 1868.605409, 1270405.811
DILUPBiCGStab:  Solving for h, Initial residual = 0.005516013548, Final residual = 0.0002001701226, No Iterations 3
After: min/max(he) = 1868.605409, 1260610.925
In thermoCorrectByCantera.h
Before bnds
Before patch loop
Ended thermoCorrect
min/max(T) = 299.9995212, 1303.396845
Min Q:-7739719.935
Max Q:160130687.8
DICPCG:  Solving for p, Initial residual = 0.2406711324, Final residual = 0.002392718251, No Iterations 671
diagonal:  Solving for rho, Initial residual = 0, Final residual = 0, No Iterations 0
time step continuity errors : sum local = 1.196293844e-07, global = -3.312847954e-12, cumulative = 0.0001847347786
DICPCG:  Solving for p, Initial residual = 0.1652519017, Final residual = 9.682550097e-06, No Iterations 795
diagonal:  Solving for rho, Initial residual = 0, Final residual = 0, No Iterations 0
time step continuity errors : sum local = 2.556183696e-09, global = 2.098020052e-13, cumulative = 0.0001847347788
ExecutionTime = 277.71 s  ClockTime = 277 s

volFieldValue Qdot_volIntegrate write:
    volIntegrate(region0) of Qdot = 4.170860736

volFieldValue AFlame_volIntegrate write:
    volIntegrate(region0) of interfaceAreaFlame = 0.0001874855357

    min/max/integ(Walls) = -50730.5892, 0.03052476156, -6.972739148
wallHeatFlux wallHeatFlux1 write:
    writing field wallHeatFlux
volFieldValue volFieldValue1 write:
    max(region0) of Qdot = 160130687.8

Courant Number mean: 0.4363591764 max: 1.005117188
deltaT = 0.0005818567921
---NormalisedGradT: min = min(normalisedGradT) [0 0 0 0 0 0 0] 1.554553459e-11   max = max(normalisedGradT) [0 0 0 0 0 0 0] 1
Time = 0.338592

Before mesh update
Time before mesh update
ExecutionTime = 278.43 s  ClockTime = 278 s

Time after mesh update
ExecutionTime = 278.43 s  ClockTime = 278 s

After mesh update: 0
diagonal:  Solving for rho, Initial residual = 0, Final residual = 0, No Iterations 0
PIMPLE: iteration 1
DILUPBiCGStab:  Solving for Ux, Initial residual = 0.005477568503, Final residual = 0.0002244304417, No Iterations 2
DILUPBiCGStab:  Solving for Uy, Initial residual = 0.01274951215, Final residual = 0.0006043430985, No Iterations 2
DILUPBiCGStab:  Solving for Uz, Initial residual = 0.01399358495, Final residual = 0.0005059719168, No Iterations 2
Before reaction->correct():
Time before reaction
ExecutionTime = 281.98 s  ClockTime = 281 s

Time after reaction
ExecutionTime = 286.55 s  ClockTime = 286 s

Done reaction->correct():
DILUPBiCGStab:  Solving for CH4, Initial residual = 0.0005582868764, Final residual = 2.600557977e-05, No Iterations 2
DILUPBiCGStab:  Solving for CH2, Initial residual = 0.002711328962, Final residual = 8.802329081e-05, No Iterations 2
DILUPBiCGStab:  Solving for H2, Initial residual = 0.0006234869467, Final residual = 2.083930412e-05, No Iterations 4
DILUPBiCGStab:  Solving for O2, Initial residual = 0.001830789519, Final residual = 6.330988046e-05, No Iterations 2
DILUPBiCGStab:  Solving for CO, Initial residual = 0.003535339445, Final residual = 6.838457002e-05, No Iterations 3
DILUPBiCGStab:  Solving for CO2, Initial residual = 0.001782364302, Final residual = 8.592701137e-05, No Iterations 1
DILUPBiCGStab:  Solving for H2O, Initial residual = 0.001809319116, Final residual = 7.791853404e-05, No Iterations 2
 In EEqn.H: min/max(T) = 299.9995212, 1303.396845
   Min Q:-7568936.097
   Max Q:157880654.1
  Before: min/max(he) = 1868.605409, 1260610.925
DILUPBiCGStab:  Solving for h, Initial residual = 0.005506644696, Final residual = 0.0001964651433, No Iterations 3
After: min/max(he) = 1868.605409, 1250932.19
In thermoCorrectByCantera.h
Before bnds
Before patch loop
Ended thermoCorrect
min/max(T) = 299.9995997, 1296.417527
Min Q:-7568936.097
Max Q:157880654.1
DICPCG:  Solving for p, Initial residual = 0.1979779727, Final residual = 0.001971591764, No Iterations 651
diagonal:  Solving for rho, Initial residual = 0, Final residual = 0, No Iterations 0
time step continuity errors : sum local = 9.58791156e-08, global = 5.564535175e-11, cumulative = 0.0001847348344
DICPCG:  Solving for p, Initial residual = 0.1324863551, Final residual = 9.970454201e-06, No Iterations 844
diagonal:  Solving for rho, Initial residual = 0, Final residual = 0, No Iterations 0
time step continuity errors : sum local = 2.622482897e-09, global = 6.141756866e-13, cumulative = 0.000184734835
ExecutionTime = 368.1 s  ClockTime = 368 s

    min/max/integ(Walls) = -50009.68706, 0.04303431894, -6.830893767
Courant Number mean: 0.4364610234 max: 1.006185787
deltaT = 0.0005782796771
---NormalisedGradT: min = min(normalisedGradT) [0 0 0 0 0 0 0] 8.269350627e-12   max = max(normalisedGradT) [0 0 0 0 0 0 0] 1
Time = 0.339171

Before mesh update
Time before mesh update
ExecutionTime = 368.76 s  ClockTime = 368 s

Time after mesh update
ExecutionTime = 368.76 s  ClockTime = 368 s

After mesh update: 0
diagonal:  Solving for rho, Initial residual = 0, Final residual = 0, No Iterations 0
PIMPLE: iteration 1
DILUPBiCGStab:  Solving for Ux, Initial residual = 0.006732489665, Final residual = 0.0002627035208, No Iterations 2
DILUPBiCGStab:  Solving for Uy, Initial residual = 0.01300133364, Final residual = 0.0006486695451, No Iterations 2
DILUPBiCGStab:  Solving for Uz, Initial residual = 0.01399667962, Final residual = 0.0004793774828, No Iterations 2
Before reaction->correct():
Time before reaction
ExecutionTime = 372.19 s  ClockTime = 372 s

Time after reaction
ExecutionTime = 376.62 s  ClockTime = 376 s

Done reaction->correct():
DILUPBiCGStab:  Solving for CH4, Initial residual = 0.0005506691549, Final residual = 2.460598349e-05, No Iterations 2
DILUPBiCGStab:  Solving for CH2, Initial residual = 0.002684613539, Final residual = 8.580563461e-05, No Iterations 2
DILUPBiCGStab:  Solving for H2, Initial residual = 0.0006142956339, Final residual = 3.047758411e-05, No Iterations 3
DILUPBiCGStab:  Solving for O2, Initial residual = 0.001818131922, Final residual = 8.886120652e-05, No Iterations 1
DILUPBiCGStab:  Solving for CO, Initial residual = 0.003489246606, Final residual = 6.767032813e-05, No Iterations 3
DILUPBiCGStab:  Solving for CO2, Initial residual = 0.001773918097, Final residual = 8.601860145e-05, No Iterations 1
DILUPBiCGStab:  Solving for H2O, Initial residual = 0.001796389437, Final residual = 7.492015076e-05, No Iterations 2
 In EEqn.H: min/max(T) = 299.9995997, 1296.417527
   Min Q:-7407160.273
   Max Q:155590491.3
  Before: min/max(he) = 1868.605409, 1250932.19
DILUPBiCGStab:  Solving for h, Initial residual = 0.005500569375, Final residual = 0.0001917125783, No Iterations 3
After: min/max(he) = 1868.605409, 1241105.179
In thermoCorrectByCantera.h
Before bnds
Before patch loop
Ended thermoCorrect
min/max(T) = 299.9994672, 1289.179854
Min Q:-7407160.273
Max Q:155590491.3
DICPCG:  Solving for p, Initial residual = 0.189910029, Final residual = 0.001888618097, No Iterations 662
diagonal:  Solving for rho, Initial residual = 0, Final residual = 0, No Iterations 0
time step continuity errors : sum local = 9.504539896e-08, global = 8.188461642e-12, cumulative = 0.0001847348432
DICPCG:  Solving for p, Initial residual = 0.1062718906, Final residual = 9.501302636e-06, No Iterations 813
diagonal:  Solving for rho, Initial residual = 0, Final residual = 0, No Iterations 0
time step continuity errors : sum local = 2.557728415e-09, global = -1.904777102e-13, cumulative = 0.000184734843
ExecutionTime = 456.41 s  ClockTime = 456 s

    min/max/integ(Walls) = -49305.18269, 0.07616101756, -6.690840472
Courant Number mean: 0.4370202653 max: 1.006851045
deltaT = 0.0005743448149
---NormalisedGradT: min = min(normalisedGradT) [0 0 0 0 0 0 0] 1.69234592e-11   max = max(normalisedGradT) [0 0 0 0 0 0 0] 1
Time = 0.339745

Before mesh update
Time before mesh update
ExecutionTime = 457.08 s  ClockTime = 457 s

Time after mesh update
ExecutionTime = 457.08 s  ClockTime = 457 s

After mesh update: 0
diagonal:  Solving for rho, Initial residual = 0, Final residual = 0, No Iterations 0
PIMPLE: iteration 1
DILUPBiCGStab:  Solving for Ux, Initial residual = 0.007544168214, Final residual = 0.0002523934184, No Iterations 2
DILUPBiCGStab:  Solving for Uy, Initial residual = 0.01219120392, Final residual = 0.0005491440234, No Iterations 2
DILUPBiCGStab:  Solving for Uz, Initial residual = 0.01329325116, Final residual = 0.0004312274239, No Iterations 2
Before reaction->correct():
Time before reaction
ExecutionTime = 460.72 s  ClockTime = 460 s

Time after reaction
ExecutionTime = 464.93 s  ClockTime = 464 s

Done reaction->correct():
DILUPBiCGStab:  Solving for CH4, Initial residual = 0.0005441083644, Final residual = 2.3277027e-05, No Iterations 2
DILUPBiCGStab:  Solving for CH2, Initial residual = 0.002661387317, Final residual = 8.273056987e-05, No Iterations 2
DILUPBiCGStab:  Solving for H2, Initial residual = 0.000607990253, Final residual = 2.951719298e-05, No Iterations 3
DILUPBiCGStab:  Solving for O2, Initial residual = 0.001808567752, Final residual = 7.518543846e-05, No Iterations 2
DILUPBiCGStab:  Solving for CO, Initial residual = 0.003447331162, Final residual = 6.669215981e-05, No Iterations 3
DILUPBiCGStab:  Solving for CO2, Initial residual = 0.001768565766, Final residual = 8.523689351e-05, No Iterations 1
DILUPBiCGStab:  Solving for H2O, Initial residual = 0.001787663193, Final residual = 7.311512427e-05, No Iterations 2
 In EEqn.H: min/max(T) = 299.9994672, 1289.179854
   Min Q:-7201215.409
   Max Q:153322030.6
  Before: min/max(he) = 1868.605409, 1241105.179
DILUPBiCGStab:  Solving for h, Initial residual = 0.005493244598, Final residual = 0.0001846602705, No Iterations 3
After: min/max(he) = 1868.554286, 1231852.456
In thermoCorrectByCantera.h
Before bnds
Before patch loop
Ended thermoCorrect
min/max(T) = 299.9992844, 1282.436669
Min Q:-7201215.409
Max Q:153322030.6
DICPCG:  Solving for p, Initial residual = 0.1701820107, Final residual = 0.001631703202, No Iterations 654
diagonal:  Solving for rho, Initial residual = 0, Final residual = 0, No Iterations 0
time step continuity errors : sum local = 8.391241502e-08, global = -4.241528254e-11, cumulative = 0.0001847348006
DICPCG:  Solving for p, Initial residual = 0.1156377559, Final residual = 9.747658158e-06, No Iterations 834
diagonal:  Solving for rho, Initial residual = 0, Final residual = 0, No Iterations 0
time step continuity errors : sum local = 2.568380785e-09, global = -1.219323494e-13, cumulative = 0.0001847348005
ExecutionTime = 545.28 s  ClockTime = 545 s

    min/max/integ(Walls) = -48590.17509, 0.1025908855, -6.552384155
Courant Number mean: 0.4373204118 max: 1.006175361
deltaT = 0.0005708197966
---NormalisedGradT: min = min(normalisedGradT) [0 0 0 0 0 0 0] 9.731376666e-12   max = max(normalisedGradT) [0 0 0 0 0 0 0] 1
Time = 0.340316

Before mesh update
Time before mesh update
ExecutionTime = 545.95 s  ClockTime = 545 s

Time after mesh update
ExecutionTime = 545.95 s  ClockTime = 545 s

After mesh update: 0
diagonal:  Solving for rho, Initial residual = 0, Final residual = 0, No Iterations 0
PIMPLE: iteration 1
DILUPBiCGStab:  Solving for Ux, Initial residual = 0.006359647984, Final residual = 0.000196010503, No Iterations 2
DILUPBiCGStab:  Solving for Uy, Initial residual = 0.01135357984, Final residual = 0.0005071270783, No Iterations 2
DILUPBiCGStab:  Solving for Uz, Initial residual = 0.01312299449, Final residual = 0.0004149292487, No Iterations 2
Before reaction->correct():
Time before reaction
ExecutionTime = 549.63 s  ClockTime = 549 s

Time after reaction
ExecutionTime = 553.56 s  ClockTime = 553 s

Done reaction->correct():
DILUPBiCGStab:  Solving for CH4, Initial residual = 0.0005374307767, Final residual = 2.18987722e-05, No Iterations 2
DILUPBiCGStab:  Solving for CH2, Initial residual = 0.0026427443, Final residual = 8.006140878e-05, No Iterations 2
DILUPBiCGStab:  Solving for H2, Initial residual = 0.0005997713121, Final residual = 2.8102728e-05, No Iterations 3
DILUPBiCGStab:  Solving for O2, Initial residual = 0.001801018731, Final residual = 8.092730315e-05, No Iterations 1
DILUPBiCGStab:  Solving for CO, Initial residual = 0.003410798587, Final residual = 6.56023396e-05, No Iterations 3
DILUPBiCGStab:  Solving for CO2, Initial residual = 0.001764806989, Final residual = 8.410683387e-05, No Iterations 1
DILUPBiCGStab:  Solving for H2O, Initial residual = 0.001779674237, Final residual = 6.9196192e-05, No Iterations 2
 In EEqn.H: min/max(T) = 299.9992844, 1282.436669
   Min Q:-7063880.192
   Max Q:150668908.8
  Before: min/max(he) = 1868.554286, 1231852.456
DILUPBiCGStab:  Solving for h, Initial residual = 0.005495514327, Final residual = 0.000179544435, No Iterations 3
After: min/max(he) = 1868.520303, 1222396.051
In thermoCorrectByCantera.h
Before bnds
Before patch loop
Ended thermoCorrect
min/max(T) = 299.9992279, 1275.508488
Min Q:-7063880.192
Max Q:150668908.8
DICPCG:  Solving for p, Initial residual = 0.1722591085, Final residual = 0.001654342284, No Iterations 663
diagonal:  Solving for rho, Initial residual = 0, Final residual = 0, No Iterations 0
time step continuity errors : sum local = 8.49706397e-08, global = -1.585012089e-12, cumulative = 0.0001847347989
DICPCG:  Solving for p, Initial residual = 0.1436442426, Final residual = 9.443980857e-06, No Iterations 838
diagonal:  Solving for rho, Initial residual = 0, Final residual = 0, No Iterations 0
time step continuity errors : sum local = 2.555401326e-09, global = -3.179347072e-13, cumulative = 0.0001847347986
ExecutionTime = 634.92 s  ClockTime = 634 s

volFieldValue Qdot_volIntegrate write:
    volIntegrate(region0) of Qdot = 3.570587

volFieldValue AFlame_volIntegrate write:
    volIntegrate(region0) of interfaceAreaFlame = 0.0001866435091

    min/max/integ(Walls) = -47901.34386, 0.09862339192, -6.415849013
wallHeatFlux wallHeatFlux1 write:
    writing field wallHeatFlux
volFieldValue volFieldValue1 write:
    max(region0) of Qdot = 150668908.8

Courant Number mean: 0.437837084 max: 1.006002775
deltaT = 0.0005674137393
---NormalisedGradT: min = min(normalisedGradT) [0 0 0 0 0 0 0] 6.240247821e-12   max = max(normalisedGradT) [0 0 0 0 0 0 0] 1
Time = 0.340883

Before mesh update
Time before mesh update
ExecutionTime = 635.68 s  ClockTime = 635 s

Time after mesh update
ExecutionTime = 635.68 s  ClockTime = 635 s

After mesh update: 0
diagonal:  Solving for rho, Initial residual = 0, Final residual = 0, No Iterations 0
PIMPLE: iteration 1
DILUPBiCGStab:  Solving for Ux, Initial residual = 0.006558563137, Final residual = 0.0002314086921, No Iterations 2
DILUPBiCGStab:  Solving for Uy, Initial residual = 0.01227362596, Final residual = 0.0005743967685, No Iterations 2
DILUPBiCGStab:  Solving for Uz, Initial residual = 0.01298887677, Final residual = 0.0003981864441, No Iterations 2
Before reaction->correct():
Time before reaction
ExecutionTime = 639.3 s  ClockTime = 639 s

Time after reaction
ExecutionTime = 643.07 s  ClockTime = 643 s

Done reaction->correct():
DILUPBiCGStab:  Solving for CH4, Initial residual = 0.0005306301735, Final residual = 2.058414522e-05, No Iterations 2
DILUPBiCGStab:  Solving for CH2, Initial residual = 0.002622913009, Final residual = 7.708328749e-05, No Iterations 2
DILUPBiCGStab:  Solving for H2, Initial residual = 0.0005914132436, Final residual = 2.686296038e-05, No Iterations 3
DILUPBiCGStab:  Solving for O2, Initial residual = 0.001793799098, Final residual = 8.58150951e-05, No Iterations 1
DILUPBiCGStab:  Solving for CO, Initial residual = 0.003352292638, Final residual = 6.225484056e-05, No Iterations 3
DILUPBiCGStab:  Solving for CO2, Initial residual = 0.001760827639, Final residual = 8.264413469e-05, No Iterations 1
DILUPBiCGStab:  Solving for H2O, Initial residual = 0.001770436252, Final residual = 6.71947593e-05, No Iterations 2
 In EEqn.H: min/max(T) = 299.9992279, 1275.508488
   Min Q:-6907072.285
   Max Q:147665631.4
  Before: min/max(he) = 1868.520303, 1222396.051
DILUPBiCGStab:  Solving for h, Initial residual = 0.005501952284, Final residual = 0.0001764493896, No Iterations 3
After: min/max(he) = 1868.541736, 1213004.212
In thermoCorrectByCantera.h
Before bnds
Before patch loop
Ended thermoCorrect
min/max(T) = 299.9992255, 1268.602387
Min Q:-6907072.285
Max Q:147665631.4
DICPCG:  Solving for p, Initial residual = 0.1017424903, Final residual = 0.001002344887, No Iterations 616
diagonal:  Solving for rho, Initial residual = 0, Final residual = 0, No Iterations 0
time step continuity errors : sum local = 4.829518549e-08, global = 1.797778364e-12, cumulative = 0.0001847348004
DICPCG:  Solving for p, Initial residual = 0.08249348421, Final residual = 9.657032651e-06, No Iterations 773
diagonal:  Solving for rho, Initial residual = 0, Final residual = 0, No Iterations 0
time step continuity errors : sum local = 2.441047474e-09, global = 3.514126316e-13, cumulative = 0.0001847348007
ExecutionTime = 718.71 s  ClockTime = 718 s

    min/max/integ(Walls) = -47193.61043, 0.08324494283, -6.280794052
Courant Number mean: 0.4385670264 max: 1.006181503
deltaT = 0.000563927818
---NormalisedGradT: min = min(normalisedGradT) [0 0 0 0 0 0 0] 2.084654731e-11   max = max(normalisedGradT) [0 0 0 0 0 0 0] 1
Time = 0.341447

Before mesh update
Time before mesh update
ExecutionTime = 719.38 s  ClockTime = 719 s

Time after mesh update
ExecutionTime = 719.38 s  ClockTime = 719 s

After mesh update: 0
diagonal:  Solving for rho, Initial residual = 0, Final residual = 0, No Iterations 0
PIMPLE: iteration 1
DILUPBiCGStab:  Solving for Ux, Initial residual = 0.006646250409, Final residual = 0.000215519406, No Iterations 2
DILUPBiCGStab:  Solving for Uy, Initial residual = 0.01154052544, Final residual = 0.0004709966668, No Iterations 2
DILUPBiCGStab:  Solving for Uz, Initial residual = 0.01217916516, Final residual = 0.000344524625, No Iterations 2
Before reaction->correct():
Time before reaction
ExecutionTime = 723.01 s  ClockTime = 723 s

Time after reaction
ExecutionTime = 726.66 s  ClockTime = 726 s

Done reaction->correct():
DILUPBiCGStab:  Solving for CH4, Initial residual = 0.0005244716388, Final residual = 1.940598042e-05, No Iterations 2
DILUPBiCGStab:  Solving for CH2, Initial residual = 0.002602453311, Final residual = 7.371325153e-05, No Iterations 2
DILUPBiCGStab:  Solving for H2, Initial residual = 0.0005832087139, Final residual = 2.543616424e-05, No Iterations 3
DILUPBiCGStab:  Solving for O2, Initial residual = 0.001786012618, Final residual = 8.630524735e-05, No Iterations 1
DILUPBiCGStab:  Solving for CO, Initial residual = 0.003315931911, Final residual = 6.286582145e-05, No Iterations 3
DILUPBiCGStab:  Solving for CO2, Initial residual = 0.001756739211, Final residual = 8.125841758e-05, No Iterations 1
DILUPBiCGStab:  Solving for H2O, Initial residual = 0.001761466923, Final residual = 6.401635192e-05, No Iterations 2
 In EEqn.H: min/max(T) = 299.9992255, 1268.602387
   Min Q:-6716592.35
   Max Q:144846533.8
  Before: min/max(he) = 1868.541736, 1213004.212
DILUPBiCGStab:  Solving for h, Initial residual = 0.005517102459, Final residual = 0.0001714677081, No Iterations 3
After: min/max(he) = 1868.561056, 1203171.649
In thermoCorrectByCantera.h
Before bnds
Before patch loop
Ended thermoCorrect
min/max(T) = 299.9992331, 1261.413235
Min Q:-6716592.35
Max Q:144846533.8
DICPCG:  Solving for p, Initial residual = 0.1047670319, Final residual = 0.001022461718, No Iterations 659
diagonal:  Solving for rho, Initial residual = 0, Final residual = 0, No Iterations 0
time step continuity errors : sum local = 4.960641519e-08, global = 6.356191602e-12, cumulative = 0.0001847348071
DICPCG:  Solving for p, Initial residual = 0.09035547002, Final residual = 9.860935652e-06, No Iterations 826
diagonal:  Solving for rho, Initial residual = 0, Final residual = 0, No Iterations 0
time step continuity errors : sum local = 2.503137087e-09, global = 3.162771916e-13, cumulative = 0.0001847348074
ExecutionTime = 807.12 s  ClockTime = 807 s

    min/max/integ(Walls) = -46502.46887, 0.07482299212, -6.147026622
Courant Number mean: 0.4396368473 max: 1.006460873
deltaT = 0.000560307741
---NormalisedGradT: min = min(normalisedGradT) [0 0 0 0 0 0 0] 6.580379005e-12   max = max(normalisedGradT) [0 0 0 0 0 0 0] 1
Time = 0.342007

Before mesh update
Time before mesh update
ExecutionTime = 807.79 s  ClockTime = 807 s

Time after mesh update
ExecutionTime = 807.79 s  ClockTime = 807 s

After mesh update: 0
diagonal:  Solving for rho, Initial residual = 0, Final residual = 0, No Iterations 0
PIMPLE: iteration 1
DILUPBiCGStab:  Solving for Ux, Initial residual = 0.007274034237, Final residual = 0.0002203517629, No Iterations 2
DILUPBiCGStab:  Solving for Uy, Initial residual = 0.01156599468, Final residual = 0.0004569474649, No Iterations 2
DILUPBiCGStab:  Solving for Uz, Initial residual = 0.01194767154, Final residual = 0.0003249370252, No Iterations 2
Before reaction->correct():
Time before reaction
ExecutionTime = 811.44 s  ClockTime = 811 s

Time after reaction
ExecutionTime = 814.96 s  ClockTime = 815 s

Done reaction->correct():
DILUPBiCGStab:  Solving for CH4, Initial residual = 0.0005188029147, Final residual = 1.842270036e-05, No Iterations 2
DILUPBiCGStab:  Solving for CH2, Initial residual = 0.002582956154, Final residual = 7.063643162e-05, No Iterations 2
DILUPBiCGStab:  Solving for H2, Initial residual = 0.0005749096105, Final residual = 2.415478563e-05, No Iterations 3
DILUPBiCGStab:  Solving for O2, Initial residual = 0.001779155341, Final residual = 8.510093783e-05, No Iterations 1
DILUPBiCGStab:  Solving for CO, Initial residual = 0.003264548448, Final residual = 5.894283054e-05, No Iterations 3
DILUPBiCGStab:  Solving for CO2, Initial residual = 0.001753242143, Final residual = 7.996481014e-05, No Iterations 1
DILUPBiCGStab:  Solving for H2O, Initial residual = 0.001752653916, Final residual = 6.089622635e-05, No Iterations 2
 In EEqn.H: min/max(T) = 299.9992331, 1261.413235
   Min Q:-6554865.359
   Max Q:142377253
  Before: min/max(he) = 1868.561056, 1203171.649
DILUPBiCGStab:  Solving for h, Initial residual = 0.005538769017, Final residual = 0.0001682515374, No Iterations 3
After: min/max(he) = 1868.539261, 1193419.392
In thermoCorrectByCantera.h
Before bnds
Before patch loop
Ended thermoCorrect
min/max(T) = 299.9991908, 1254.158532
Min Q:-6554865.359
Max Q:142377253
DICPCG:  Solving for p, Initial residual = 0.1128928915, Final residual = 0.001120116008, No Iterations 655
diagonal:  Solving for rho, Initial residual = 0, Final residual = 0, No Iterations 0
time step continuity errors : sum local = 5.498648857e-08, global = 1.974691517e-12, cumulative = 0.0001847348094
DICPCG:  Solving for p, Initial residual = 0.08700646698, Final residual = 9.570647466e-06, No Iterations 833
diagonal:  Solving for rho, Initial residual = 0, Final residual = 0, No Iterations 0
time step continuity errors : sum local = 2.495033828e-09, global = -3.110613261e-13, cumulative = 0.0001847348091
ExecutionTime = 895.88 s  ClockTime = 896 s

volFieldValue Qdot_volIntegrate write:
    volIntegrate(region0) of Qdot = 3.115515848

volFieldValue AFlame_volIntegrate write:
    volIntegrate(region0) of interfaceAreaFlame = 0.0001858377468

    min/max/integ(Walls) = -45804.45176, 0.07646174704, -6.014499088
wallHeatFlux wallHeatFlux1 write:
    writing field wallHeatFlux
volFieldValue volFieldValue1 write:
    max(region0) of Qdot = 142377253

Courant Number mean: 0.4410594112 max: 1.006886228
deltaT = 0.0005564757222
---NormalisedGradT: min = min(normalisedGradT) [0 0 0 0 0 0 0] 3.227028466e-11   max = max(normalisedGradT) [0 0 0 0 0 0 0] 1
Time = 0.342564

Before mesh update
Time before mesh update
ExecutionTime = 896.64 s  ClockTime = 896 s

Time after mesh update
ExecutionTime = 896.64 s  ClockTime = 896 s

After mesh update: 0
diagonal:  Solving for rho, Initial residual = 0, Final residual = 0, No Iterations 0
PIMPLE: iteration 1
DILUPBiCGStab:  Solving for Ux, Initial residual = 0.007870317809, Final residual = 0.0002279046683, No Iterations 2
DILUPBiCGStab:  Solving for Uy, Initial residual = 0.01161472194, Final residual = 0.0004431331026, No Iterations 2
DILUPBiCGStab:  Solving for Uz, Initial residual = 0.01212226938, Final residual = 0.0003160115493, No Iterations 2
Before reaction->correct():
Time before reaction
ExecutionTime = 900.39 s  ClockTime = 900 s

Time after reaction
ExecutionTime = 903.79 s  ClockTime = 904 s

Done reaction->correct():
DILUPBiCGStab:  Solving for CH4, Initial residual = 0.0005137815416, Final residual = 1.75181707e-05, No Iterations 2
DILUPBiCGStab:  Solving for CH2, Initial residual = 0.002564475406, Final residual = 6.769564411e-05, No Iterations 2
DILUPBiCGStab:  Solving for H2, Initial residual = 0.0005668683012, Final residual = 2.280657129e-05, No Iterations 3
DILUPBiCGStab:  Solving for O2, Initial residual = 0.001773580977, Final residual = 8.301316258e-05, No Iterations 1
DILUPBiCGStab:  Solving for CO, Initial residual = 0.003216071902, Final residual = 0.0001605669025, No Iterations 2
DILUPBiCGStab:  Solving for CO2, Initial residual = 0.001750688158, Final residual = 7.870845156e-05, No Iterations 1
DILUPBiCGStab:  Solving for H2O, Initial residual = 0.001744532175, Final residual = 8.418699047e-05, No Iterations 1
 In EEqn.H: min/max(T) = 299.9991908, 1254.158532
   Min Q:-6392054.404
   Max Q:138926589.6
  Before: min/max(he) = 1868.539261, 1193419.392
DILUPBiCGStab:  Solving for h, Initial residual = 0.005566919697, Final residual = 0.0001639496496, No Iterations 3
After: min/max(he) = 1868.488708, 1183228.565
In thermoCorrectByCantera.h
Before bnds
Before patch loop
Ended thermoCorrect
min/max(T) = 299.99912, 1246.550396
Min Q:-6392054.404
Max Q:138926589.6
DICPCG:  Solving for p, Initial residual = 0.1265905689, Final residual = 0.001260075723, No Iterations 650
diagonal:  Solving for rho, Initial residual = 0, Final residual = 0, No Iterations 0
time step continuity errors : sum local = 6.390062044e-08, global = 7.426239563e-12, cumulative = 0.0001847348165
DICPCG:  Solving for p, Initial residual = 0.09196478127, Final residual = 9.892491802e-06, No Iterations 786
diagonal:  Solving for rho, Initial residual = 0, Final residual = 0, No Iterations 0
time step continuity errors : sum local = 2.417948119e-09, global = 3.427551846e-13, cumulative = 0.0001847348168
ExecutionTime = 982.93 s  ClockTime = 983 s

    min/max/integ(Walls) = -45117.91111, 0.08019979283, -5.883252368
Courant Number mean: 0.4429170188 max: 1.007540928
deltaT = 0.0005523107863
---NormalisedGradT: min = min(normalisedGradT) [0 0 0 0 0 0 0] 1.163098005e-11   max = max(normalisedGradT) [0 0 0 0 0 0 0] 1
Time = 0.343116

Before mesh update
Time before mesh update
ExecutionTime = 983.6 s  ClockTime = 983 s

Time after mesh update
ExecutionTime = 983.6 s  ClockTime = 983 s

After mesh update: 0
diagonal:  Solving for rho, Initial residual = 0, Final residual = 0, No Iterations 0
PIMPLE: iteration 1
DILUPBiCGStab:  Solving for Ux, Initial residual = 0.00882564923, Final residual = 0.0002383040331, No Iterations 2
DILUPBiCGStab:  Solving for Uy, Initial residual = 0.0116346996, Final residual = 0.0003980727938, No Iterations 2
DILUPBiCGStab:  Solving for Uz, Initial residual = 0.01281610886, Final residual = 0.0003135594939, No Iterations 2
Before reaction->correct():
Time before reaction
ExecutionTime = 987.16 s  ClockTime = 987 s

Time after reaction
ExecutionTime = 990.44 s  ClockTime = 990 s

Done reaction->correct():
DILUPBiCGStab:  Solving for CH4, Initial residual = 0.0005095716744, Final residual = 1.684244538e-05, No Iterations 2
DILUPBiCGStab:  Solving for CH2, Initial residual = 0.002547127319, Final residual = 6.457195172e-05, No Iterations 2
DILUPBiCGStab:  Solving for H2, Initial residual = 0.0005590006196, Final residual = 2.157512756e-05, No Iterations 3
DILUPBiCGStab:  Solving for O2, Initial residual = 0.001769413624, Final residual = 8.073413559e-05, No Iterations 1
DILUPBiCGStab:  Solving for CO, Initial residual = 0.00316754184, Final residual = 0.0001488428993, No Iterations 2
DILUPBiCGStab:  Solving for CO2, Initial residual = 0.001748977426, Final residual = 7.74049293e-05, No Iterations 1
DILUPBiCGStab:  Solving for H2O, Initial residual = 0.001736919814, Final residual = 8.641701508e-05, No Iterations 1
 In EEqn.H: min/max(T) = 299.99912, 1246.550396
   Min Q:-6216639.808
   Max Q:135384343.9
  Before: min/max(he) = 1868.488708, 1183228.565
DILUPBiCGStab:  Solving for h, Initial residual = 0.005600283875, Final residual = 0.0002747649823, No Iterations 2
After: min/max(he) = 1868.405824, 1173781.73
In thermoCorrectByCantera.h
Before bnds
Before patch loop
Ended thermoCorrect
min/max(T) = 299.9990045, 1239.702698
Min Q:-6216639.808
Max Q:135384343.9
DICPCG:  Solving for p, Initial residual = 0.5321652956, Final residual = 0.005251103654, No Iterations 652
diagonal:  Solving for rho, Initial residual = 0, Final residual = 0, No Iterations 0
time step continuity errors : sum local = 4.691698957e-07, global = 7.384341987e-11, cumulative = 0.0001847348907
DICPCG:  Solving for p, Initial residual = 0.3652103595, Final residual = 9.491845927e-06, No Iterations 864
diagonal:  Solving for rho, Initial residual = 0, Final residual = 0, No Iterations 0
time step continuity errors : sum local = 2.68920174e-09, global = -2.570333153e-13, cumulative = 0.0001847348904
ExecutionTime = 1072.52 s  ClockTime = 1072 s

    min/max/integ(Walls) = -44445.45765, 0.08743920073, -5.751783703
Courant Number mean: 0.4473949675 max: 1.012659487
deltaT = 0.0005454062231
---NormalisedGradT: min = min(normalisedGradT) [0 0 0 0 0 0 0] 2.686956957e-11   max = max(normalisedGradT) [0 0 0 0 0 0 0] 1
Time = 0.343662

Before mesh update
Time before mesh update
ExecutionTime = 1073.19 s  ClockTime = 1073 s

Time after mesh update
ExecutionTime = 1073.19 s  ClockTime = 1073 s

After mesh update: 0
diagonal:  Solving for rho, Initial residual = 0, Final residual = 0, No Iterations 0
PIMPLE: iteration 1
DILUPBiCGStab:  Solving for Ux, Initial residual = 0.01495052292, Final residual = 0.0003147996087, No Iterations 1
DILUPBiCGStab:  Solving for Uy, Initial residual = 0.01050432417, Final residual = 0.0003060513314, No Iterations 2
DILUPBiCGStab:  Solving for Uz, Initial residual = 0.03217342706, Final residual = 0.0006375180029, No Iterations 2
Before reaction->correct():
Time before reaction
ExecutionTime = 1076.6 s  ClockTime = 1076 s

Time after reaction
ExecutionTime = 1079.76 s  ClockTime = 1080 s

Done reaction->correct():
DILUPBiCGStab:  Solving for CH4, Initial residual = 0.0004983354426, Final residual = 1.582750745e-05, No Iterations 2
DILUPBiCGStab:  Solving for CH2, Initial residual = 0.00252556044, Final residual = 6.051977233e-05, No Iterations 2
DILUPBiCGStab:  Solving for H2, Initial residual = 0.0005444663789, Final residual = 2.017534467e-05, No Iterations 3
DILUPBiCGStab:  Solving for O2, Initial residual = 0.001764592733, Final residual = 7.709434096e-05, No Iterations 1
DILUPBiCGStab:  Solving for CO, Initial residual = 0.003075736825, Final residual = 0.0001444768441, No Iterations 2
DILUPBiCGStab:  Solving for CO2, Initial residual = 0.001745803685, Final residual = 7.462262202e-05, No Iterations 1
DILUPBiCGStab:  Solving for H2O, Initial residual = 0.001730149321, Final residual = 8.514880906e-05, No Iterations 1
 In EEqn.H: min/max(T) = 299.9990045, 1239.702698
   Min Q:-6076092.397
   Max Q:132540722.2
  Before: min/max(he) = 1868.405824, 1173781.73
DILUPBiCGStab:  Solving for h, Initial residual = 0.005564062072, Final residual = 0.0001572904212, No Iterations 3
After: min/max(he) = 1867.851571, 1163257.5
In thermoCorrectByCantera.h
Before bnds
Before patch loop
Ended thermoCorrect
min/max(T) = 299.9983094, 1232.051238
Min Q:-6076092.397
Max Q:132540722.2
DICPCG:  Solving for p, Initial residual = 0.7034030135, Final residual = 0.006729457432, No Iterations 545
diagonal:  Solving for rho, Initial residual = 0, Final residual = 0, No Iterations 0
time step continuity errors : sum local = 9.201214087e-07, global = -1.394656377e-10, cumulative = 0.000184734751
DICPCG:  Solving for p, Initial residual = 0.6743171518, Final residual = 9.976811775e-06, No Iterations 872
diagonal:  Solving for rho, Initial residual = 0, Final residual = 0, No Iterations 0
time step continuity errors : sum local = 2.741538753e-09, global = 6.368354886e-14, cumulative = 0.000184734751
ExecutionTime = 1157.03 s  ClockTime = 1157 s

    min/max/integ(Walls) = -43795.49634, 0.2406118172, -5.625547649
Courant Number mean: 0.4442497598 max: 1.000528945
deltaT = 0.0005451178859
---NormalisedGradT: min = min(normalisedGradT) [0 0 0 0 0 0 0] 4.108820336e-12   max = max(normalisedGradT) [0 0 0 0 0 0 0] 1
Time = 0.344207

Before mesh update
Time before mesh update
ExecutionTime = 1157.7 s  ClockTime = 1157 s

Time after mesh update
ExecutionTime = 1157.7 s  ClockTime = 1157 s

After mesh update: 0
diagonal:  Solving for rho, Initial residual = 0, Final residual = 0, No Iterations 0
PIMPLE: iteration 1
DILUPBiCGStab:  Solving for Ux, Initial residual = 0.008523328828, Final residual = 0.0003350448291, No Iterations 2
DILUPBiCGStab:  Solving for Uy, Initial residual = 0.01912034131, Final residual = 0.0007162153467, No Iterations 2
DILUPBiCGStab:  Solving for Uz, Initial residual = 0.02856606867, Final residual = 0.001166236546, No Iterations 2
Before reaction->correct():
Time before reaction
ExecutionTime = 1161.06 s  ClockTime = 1161 s

Time after reaction
ExecutionTime = 1164.1 s  ClockTime = 1164 s

Done reaction->correct():
DILUPBiCGStab:  Solving for CH4, Initial residual = 0.0005044630639, Final residual = 1.554651163e-05, No Iterations 2
DILUPBiCGStab:  Solving for CH2, Initial residual = 0.002524181917, Final residual = 5.752548165e-05, No Iterations 2
DILUPBiCGStab:  Solving for H2, Initial residual = 0.0005455820226, Final residual = 1.896475549e-05, No Iterations 3
DILUPBiCGStab:  Solving for O2, Initial residual = 0.00177337184, Final residual = 7.611540531e-05, No Iterations 1
DILUPBiCGStab:  Solving for CO, Initial residual = 0.003087141895, Final residual = 0.0001370650571, No Iterations 2
DILUPBiCGStab:  Solving for CO2, Initial residual = 0.001756131816, Final residual = 7.41904763e-05, No Iterations 1
DILUPBiCGStab:  Solving for H2O, Initial residual = 0.001736237046, Final residual = 8.430195627e-05, No Iterations 1
 In EEqn.H: min/max(T) = 299.9983094, 1232.051238
   Min Q:-5898616.805
   Max Q:127987490.7
  Before: min/max(he) = 1867.851571, 1163257.5
DILUPBiCGStab:  Solving for h, Initial residual = 0.005659858868, Final residual = 0.0002604576911, No Iterations 2
After: min/max(he) = 1868.438137, 1152909.243
In thermoCorrectByCantera.h
Before bnds
Before patch loop
Ended thermoCorrect
min/max(T) = 299.999191, 1224.494406
Min Q:-5898616.805
Max Q:127987490.7
DICPCG:  Solving for p, Initial residual = 0.8098485577, Final residual = 0.00801263311, No Iterations 652
diagonal:  Solving for rho, Initial residual = 0, Final residual = 0, No Iterations 0
time step continuity errors : sum local = 1.064841776e-06, global = -4.327480212e-10, cumulative = 0.0001847343183
DICPCG:  Solving for p, Initial residual = 0.5992185989, Final residual = 9.954970271e-06, No Iterations 865
diagonal:  Solving for rho, Initial residual = 0, Final residual = 0, No Iterations 0
time step continuity errors : sum local = 2.852559411e-09, global = -1.753373619e-13, cumulative = 0.0001847343181
ExecutionTime = 1246.07 s  ClockTime = 1246 s

volFieldValue Qdot_volIntegrate write:
    volIntegrate(region0) of Qdot = 2.514977631

volFieldValue AFlame_volIntegrate write:
    volIntegrate(region0) of interfaceAreaFlame = 0.0001843286122

    min/max/integ(Walls) = -43117.21085, 0.01178649248, -5.497913832
wallHeatFlux wallHeatFlux1 write:
    writing field wallHeatFlux
volFieldValue volFieldValue1 write:
    max(region0) of Qdot = 127987490.7

Courant Number mean: 0.4491294323 max: 1.010395422
deltaT = 0.0005395094575
---NormalisedGradT: min = min(normalisedGradT) [0 0 0 0 0 0 0] 3.540178763e-11   max = max(normalisedGradT) [0 0 0 0 0 0 0] 1
Time = 0.344746

Before mesh update
Time before mesh update
ExecutionTime = 1246.81 s  ClockTime = 1247 s

Time after mesh update
ExecutionTime = 1246.81 s  ClockTime = 1247 s

After mesh update: 0
diagonal:  Solving for rho, Initial residual = 0, Final residual = 0, No Iterations 0
PIMPLE: iteration 1
DILUPBiCGStab:  Solving for Ux, Initial residual = 0.01188378064, Final residual = 0.0003523769486, No Iterations 1
DILUPBiCGStab:  Solving for Uy, Initial residual = 0.01323545877, Final residual = 0.0005718066585, No Iterations 2
DILUPBiCGStab:  Solving for Uz, Initial residual = 0.03555508793, Final residual = 0.0007189393226, No Iterations 2
Before reaction->correct():
Time before reaction
ExecutionTime = 1250.17 s  ClockTime = 1250 s

Time after reaction
ExecutionTime = 1253.29 s  ClockTime = 1253 s

Done reaction->correct():
DILUPBiCGStab:  Solving for CH4, Initial residual = 0.0004907814377, Final residual = 1.45913342e-05, No Iterations 2
DILUPBiCGStab:  Solving for CH2, Initial residual = 0.002492872451, Final residual = 5.437795995e-05, No Iterations 2
DILUPBiCGStab:  Solving for H2, Initial residual = 0.0005306962979, Final residual = 1.796733562e-05, No Iterations 3
DILUPBiCGStab:  Solving for O2, Initial residual = 0.001756607833, Final residual = 7.272309741e-05, No Iterations 1
DILUPBiCGStab:  Solving for CO, Initial residual = 0.003014479048, Final residual = 0.0001210808793, No Iterations 2
DILUPBiCGStab:  Solving for CO2, Initial residual = 0.001740462921, Final residual = 7.149560759e-05, No Iterations 1
DILUPBiCGStab:  Solving for H2O, Initial residual = 0.001719072477, Final residual = 8.104827522e-05, No Iterations 1
 In EEqn.H: min/max(T) = 299.999191, 1224.494406
   Min Q:-5762459.698
   Max Q:123855280.8
  Before: min/max(he) = 1868.438137, 1152909.243
DILUPBiCGStab:  Solving for h, Initial residual = 0.005661356866, Final residual = 0.0002705026635, No Iterations 2
After: min/max(he) = 1868.394308, 1142412.188
In thermoCorrectByCantera.h
Before bnds
Before patch loop
Ended thermoCorrect
min/max(T) = 299.9989116, 1216.81795
Min Q:-5762459.698
Max Q:123855280.8
DICPCG:  Solving for p, Initial residual = 0.6303133964, Final residual = 0.005998343436, No Iterations 657
diagonal:  Solving for rho, Initial residual = 0, Final residual = 0, No Iterations 0
time step continuity errors : sum local = 5.711353243e-07, global = 1.683863453e-10, cumulative = 0.0001847344865
DICPCG:  Solving for p, Initial residual = 0.5035246224, Final residual = 9.577325233e-06, No Iterations 869
diagonal:  Solving for rho, Initial residual = 0, Final residual = 0, No Iterations 0
time step continuity errors : sum local = 2.564157449e-09, global = 3.440811019e-13, cumulative = 0.0001847344868
ExecutionTime = 1336.02 s  ClockTime = 1336 s

    min/max/integ(Walls) = -42491.9992, 0.06937369241, -5.372490113
Courant Number mean: 0.4498854615 max: 1.007203642
deltaT = 0.0005356508208
---NormalisedGradT: min = min(normalisedGradT) [0 0 0 0 0 0 0] 8.135105124e-12   max = max(normalisedGradT) [0 0 0 0 0 0 0] 1
Time = 0.345282

Before mesh update
Time before mesh update
ExecutionTime = 1336.69 s  ClockTime = 1337 s

Time after mesh update
ExecutionTime = 1336.69 s  ClockTime = 1337 s

After mesh update: 0
diagonal:  Solving for rho, Initial residual = 0, Final residual = 0, No Iterations 0
PIMPLE: iteration 1
DILUPBiCGStab:  Solving for Ux, Initial residual = 0.009217477993, Final residual = 0.0002467960888, No Iterations 2
DILUPBiCGStab:  Solving for Uy, Initial residual = 0.013305193, Final residual = 0.0006582429234, No Iterations 2
DILUPBiCGStab:  Solving for Uz, Initial residual = 0.01516679334, Final residual = 0.0003449243993, No Iterations 2
Before reaction->correct():
Time before reaction
ExecutionTime = 1340.21 s  ClockTime = 1340 s

Time after reaction
ExecutionTime = 1343.21 s  ClockTime = 1343 s

Done reaction->correct():
DILUPBiCGStab:  Solving for CH4, Initial residual = 0.0004890651515, Final residual = 1.415651501e-05, No Iterations 2
DILUPBiCGStab:  Solving for CH2, Initial residual = 0.002482065679, Final residual = 5.120858431e-05, No Iterations 2
DILUPBiCGStab:  Solving for H2, Initial residual = 0.0005242132567, Final residual = 1.684199192e-05, No Iterations 3
DILUPBiCGStab:  Solving for O2, Initial residual = 0.001758203704, Final residual = 7.005811528e-05, No Iterations 1
DILUPBiCGStab:  Solving for CO, Initial residual = 0.002994114516, Final residual = 0.000110962404, No Iterations 2
DILUPBiCGStab:  Solving for CO2, Initial residual = 0.001744308914, Final residual = 6.982235038e-05, No Iterations 1
DILUPBiCGStab:  Solving for H2O, Initial residual = 0.001718999459, Final residual = 7.764644516e-05, No Iterations 1
 In EEqn.H: min/max(T) = 299.9989116, 1216.81795
   Min Q:-5576043.585
   Max Q:118894264.4
  Before: min/max(he) = 1868.394308, 1142412.188
DILUPBiCGStab:  Solving for h, Initial residual = 0.005676993823, Final residual = 0.0002606707401, No Iterations 2
After: min/max(he) = 1868.235659, 1131088.294
In thermoCorrectByCantera.h
Before bnds
Before patch loop
Ended thermoCorrect
min/max(T) = 299.9987688, 1208.555697
Min Q:-5576043.585
Max Q:118894264.4
DICPCG:  Solving for p, Initial residual = 0.3523694545, Final residual = 0.003352173379, No Iterations 649
diagonal:  Solving for rho, Initial residual = 0, Final residual = 0, No Iterations 0
time step continuity errors : sum local = 2.146402851e-07, global = 4.733111249e-11, cumulative = 0.0001847345342
DICPCG:  Solving for p, Initial residual = 0.3015284999, Final residual = 9.730716238e-06, No Iterations 820
diagonal:  Solving for rho, Initial residual = 0, Final residual = 0, No Iterations 0
time step continuity errors : sum local = 2.360699049e-09, global = -4.715378893e-13, cumulative = 0.0001847345337
ExecutionTime = 1423.12 s  ClockTime = 1423 s

    min/max/integ(Walls) = -41851.51765, 0.09676748055, -5.249402072
Courant Number mean: 0.4501663863 max: 1.004423178
deltaT = 0.0005332919755
---NormalisedGradT: min = min(normalisedGradT) [0 0 0 0 0 0 0] 1.957093363e-11   max = max(normalisedGradT) [0 0 0 0 0 0 0] 1
Time = 0.345815

Before mesh update
Time before mesh update
ExecutionTime = 1423.79 s  ClockTime = 1424 s

Time after mesh update
ExecutionTime = 1423.79 s  ClockTime = 1424 s

After mesh update: 0
diagonal:  Solving for rho, Initial residual = 0, Final residual = 0, No Iterations 0
PIMPLE: iteration 1
DILUPBiCGStab:  Solving for Ux, Initial residual = 0.004838864774, Final residual = 0.0001126890205, No Iterations 2
DILUPBiCGStab:  Solving for Uy, Initial residual = 0.009963650978, Final residual = 0.0002368305062, No Iterations 2
DILUPBiCGStab:  Solving for Uz, Initial residual = 0.01317979443, Final residual = 0.0002923650187, No Iterations 2
Before reaction->correct():
Time before reaction
ExecutionTime = 1427.42 s  ClockTime = 1427 s

Time after reaction
ExecutionTime = 1430.32 s  ClockTime = 1430 s

Done reaction->correct():
DILUPBiCGStab:  Solving for CH4, Initial residual = 0.0004861828878, Final residual = 1.344491292e-05, No Iterations 2
DILUPBiCGStab:  Solving for CH2, Initial residual = 0.002467002099, Final residual = 4.77551352e-05, No Iterations 2
DILUPBiCGStab:  Solving for H2, Initial residual = 0.0005191636974, Final residual = 1.603847256e-05, No Iterations 3
DILUPBiCGStab:  Solving for O2, Initial residual = 0.00175702146, Final residual = 6.818552359e-05, No Iterations 1
DILUPBiCGStab:  Solving for CO, Initial residual = 0.0029878981, Final residual = 0.0001004737901, No Iterations 2
DILUPBiCGStab:  Solving for CO2, Initial residual = 0.001743080864, Final residual = 6.768961759e-05, No Iterations 1
DILUPBiCGStab:  Solving for H2O, Initial residual = 0.001717444786, Final residual = 7.557892327e-05, No Iterations 1
 In EEqn.H: min/max(T) = 299.9987688, 1208.555697
   Min Q:-5448251.661
   Max Q:112993364.4
  Before: min/max(he) = 1868.235659, 1131088.294
DILUPBiCGStab:  Solving for h, Initial residual = 0.005733610973, Final residual = 0.0002564637803, No Iterations 2
After: min/max(he) = 1868.448681, 1119255.708
In thermoCorrectByCantera.h
Before bnds
Before patch loop
Ended thermoCorrect
min/max(T) = 299.9990812, 1199.794687
Min Q:-5448251.661
Max Q:112993364.4
DICPCG:  Solving for p, Initial residual = 0.3021702545, Final residual = 0.002961777266, No Iterations 619
diagonal:  Solving for rho, Initial residual = 0, Final residual = 0, No Iterations 0
time step continuity errors : sum local = 1.522715586e-07, global = 2.839415987e-11, cumulative = 0.0001847345621
DICPCG:  Solving for p, Initial residual = 0.1993316321, Final residual = 9.927956559e-06, No Iterations 829
diagonal:  Solving for rho, Initial residual = 0, Final residual = 0, No Iterations 0
time step continuity errors : sum local = 2.347729367e-09, global = 8.07440063e-14, cumulative = 0.0001847345622
ExecutionTime = 1509.25 s  ClockTime = 1509 s

    min/max/integ(Walls) = -41201.58524, 0.03230950482, -5.127515768
Courant Number mean: 0.451162185 max: 1.004425459
deltaT = 0.0005309423121
---NormalisedGradT: min = min(normalisedGradT) [0 0 0 0 0 0 0] 6.705634327e-12   max = max(normalisedGradT) [0 0 0 0 0 0 0] 1
Time = 0.346346

Before mesh update
Time before mesh update
ExecutionTime = 1509.92 s  ClockTime = 1510 s

Time after mesh update
ExecutionTime = 1509.92 s  ClockTime = 1510 s

After mesh update: 0
diagonal:  Solving for rho, Initial residual = 0, Final residual = 0, No Iterations 0
PIMPLE: iteration 1
DILUPBiCGStab:  Solving for Ux, Initial residual = 0.005083685798, Final residual = 0.0001277258346, No Iterations 2
DILUPBiCGStab:  Solving for Uy, Initial residual = 0.01009954258, Final residual = 0.000211902639, No Iterations 2
DILUPBiCGStab:  Solving for Uz, Initial residual = 0.009928109668, Final residual = 0.0004761936938, No Iterations 2
Before reaction->correct():
Time before reaction
ExecutionTime = 1513.63 s  ClockTime = 1514 s

Time after reaction
ExecutionTime = 1516.58 s  ClockTime = 1516 s

Done reaction->correct():
DILUPBiCGStab:  Solving for CH4, Initial residual = 0.0004827771034, Final residual = 1.31168334e-05, No Iterations 2
DILUPBiCGStab:  Solving for CH2, Initial residual = 0.002449782943, Final residual = 4.508885647e-05, No Iterations 2
DILUPBiCGStab:  Solving for H2, Initial residual = 0.0005131123587, Final residual = 1.541863287e-05, No Iterations 3
DILUPBiCGStab:  Solving for O2, Initial residual = 0.001750383077, Final residual = 6.600253716e-05, No Iterations 1
DILUPBiCGStab:  Solving for CO, Initial residual = 0.002968986596, Final residual = 8.794020522e-05, No Iterations 2
DILUPBiCGStab:  Solving for CO2, Initial residual = 0.001737717314, Final residual = 6.62082331e-05, No Iterations 1
DILUPBiCGStab:  Solving for H2O, Initial residual = 0.001710080955, Final residual = 7.273481657e-05, No Iterations 1
 In EEqn.H: min/max(T) = 299.9990812, 1199.794687
   Min Q:-5255189.389
   Max Q:108578820.7
  Before: min/max(he) = 1868.448681, 1119255.708
DILUPBiCGStab:  Solving for h, Initial residual = 0.005787959476, Final residual = 0.0002513295739, No Iterations 2
After: min/max(he) = 1868.605409, 1106462.315
In thermoCorrectByCantera.h
Before bnds
Before patch loop
Ended thermoCorrect
min/max(T) = 299.9993327, 1190.32543
Min Q:-5255189.389
Max Q:108578820.7
DICPCG:  Solving for p, Initial residual = 0.1865747176, Final residual = 0.00186395815, No Iterations 649
diagonal:  Solving for rho, Initial residual = 0, Final residual = 0, No Iterations 0
time step continuity errors : sum local = 8.34686323e-08, global = -1.832525612e-11, cumulative = 0.0001847345438
DICPCG:  Solving for p, Initial residual = 0.1341105955, Final residual = 9.411860278e-06, No Iterations 809
diagonal:  Solving for rho, Initial residual = 0, Final residual = 0, No Iterations 0
time step continuity errors : sum local = 2.298202489e-09, global = -3.070452574e-13, cumulative = 0.0001847345435
ExecutionTime = 1596.57 s  ClockTime = 1596 s

volFieldValue Qdot_volIntegrate write:
    volIntegrate(region0) of Qdot = 1.974447305

volFieldValue AFlame_volIntegrate write:
    volIntegrate(region0) of interfaceAreaFlame = 0.00018188568

    min/max/integ(Walls) = -40548.68403, 0.006977750205, -5.006975188
wallHeatFlux wallHeatFlux1 write:
    writing field wallHeatFlux
volFieldValue volFieldValue1 write:
    max(region0) of Qdot = 108578820.7

Courant Number mean: 0.4523995167 max: 1.004882019
deltaT = 0.0005283628349
---NormalisedGradT: min = min(normalisedGradT) [0 0 0 0 0 0 0] 1.830704365e-11   max = max(normalisedGradT) [0 0 0 0 0 0 0] 1
Time = 0.346875

Before mesh update
Time before mesh update
ExecutionTime = 1597.33 s  ClockTime = 1597 s

Time after mesh update
ExecutionTime = 1597.33 s  ClockTime = 1597 s

After mesh update: 0
diagonal:  Solving for rho, Initial residual = 0, Final residual = 0, No Iterations 0
PIMPLE: iteration 1
DILUPBiCGStab:  Solving for Ux, Initial residual = 0.005746194253, Final residual = 0.000151941991, No Iterations 2
DILUPBiCGStab:  Solving for Uy, Initial residual = 0.0109389773, Final residual = 0.0002704568782, No Iterations 2
DILUPBiCGStab:  Solving for Uz, Initial residual = 0.01068632234, Final residual = 0.0005095541996, No Iterations 2
Before reaction->correct():
Time before reaction
ExecutionTime = 1600.8 s  ClockTime = 1601 s

Time after reaction
ExecutionTime = 1603.8 s  ClockTime = 1604 s

Done reaction->correct():
DILUPBiCGStab:  Solving for CH4, Initial residual = 0.000479816444, Final residual = 1.267053416e-05, No Iterations 2
DILUPBiCGStab:  Solving for CH2, Initial residual = 0.002432354421, Final residual = 4.262172362e-05, No Iterations 2
DILUPBiCGStab:  Solving for H2, Initial residual = 0.000508316298, Final residual = 1.507628148e-05, No Iterations 3
DILUPBiCGStab:  Solving for O2, Initial residual = 0.001744201643, Final residual = 6.399196097e-05, No Iterations 1
DILUPBiCGStab:  Solving for CO, Initial residual = 0.002950604054, Final residual = 9.058438211e-05, No Iterations 2
DILUPBiCGStab:  Solving for CO2, Initial residual = 0.001732357275, Final residual = 6.426039531e-05, No Iterations 1
DILUPBiCGStab:  Solving for H2O, Initial residual = 0.001703589282, Final residual = 7.040944023e-05, No Iterations 1
 In EEqn.H: min/max(T) = 299.9993327, 1190.32543
   Min Q:-5129194.402
   Max Q:104871108.6
  Before: min/max(he) = 1868.605409, 1106462.315
DILUPBiCGStab:  Solving for h, Initial residual = 0.005844220761, Final residual = 0.000244564232, No Iterations 2
After: min/max(he) = 1868.605409, 1092542.146
In thermoCorrectByCantera.h
Before bnds
Before patch loop
Ended thermoCorrect
min/max(T) = 299.9994157, 1180.002361
Min Q:-5129194.402
Max Q:104871108.6
DICPCG:  Solving for p, Initial residual = 0.121615593, Final residual = 0.001211897311, No Iterations 637
diagonal:  Solving for rho, Initial residual = 0, Final residual = 0, No Iterations 0
time step continuity errors : sum local = 5.128008741e-08, global = -4.475811226e-11, cumulative = 0.0001847344988
DICPCG:  Solving for p, Initial residual = 0.08860908969, Final residual = 9.692226046e-06, No Iterations 776
diagonal:  Solving for rho, Initial residual = 0, Final residual = 0, No Iterations 0
time step continuity errors : sum local = 2.242224903e-09, global = 3.902644031e-13, cumulative = 0.0001847344992
ExecutionTime = 1681.1 s  ClockTime = 1681 s

    min/max/integ(Walls) = -39874.50853, 0.01652022677, -4.887574248
Courant Number mean: 0.4536409447 max: 1.004892013
deltaT = 0.0005257906602
---NormalisedGradT: min = min(normalisedGradT) [0 0 0 0 0 0 0] 2.524881805e-11   max = max(normalisedGradT) [0 0 0 0 0 0 0] 1
Time = 0.3474

Before mesh update
Time before mesh update
ExecutionTime = 1681.78 s  ClockTime = 1682 s

Time after mesh update
ExecutionTime = 1681.78 s  ClockTime = 1682 s

After mesh update: 0
diagonal:  Solving for rho, Initial residual = 0, Final residual = 0, No Iterations 0
PIMPLE: iteration 1
DILUPBiCGStab:  Solving for Ux, Initial residual = 0.005772476711, Final residual = 0.0001311001873, No Iterations 2
DILUPBiCGStab:  Solving for Uy, Initial residual = 0.01075348966, Final residual = 0.0002519254695, No Iterations 2
DILUPBiCGStab:  Solving for Uz, Initial residual = 0.01033918328, Final residual = 0.0004701940116, No Iterations 2
Before reaction->correct():
Time before reaction
ExecutionTime = 1685.27 s  ClockTime = 1685 s

Time after reaction
ExecutionTime = 1688.29 s  ClockTime = 1688 s

Done reaction->correct():
DILUPBiCGStab:  Solving for CH4, Initial residual = 0.0004768564693, Final residual = 1.211202087e-05, No Iterations 2
DILUPBiCGStab:  Solving for CH2, Initial residual = 0.00241603694, Final residual = 3.949347915e-05, No Iterations 2
DILUPBiCGStab:  Solving for H2, Initial residual = 0.0005040102017, Final residual = 1.483414613e-05, No Iterations 3
DILUPBiCGStab:  Solving for O2, Initial residual = 0.001739104149, Final residual = 6.210804606e-05, No Iterations 1
DILUPBiCGStab:  Solving for CO, Initial residual = 0.00292563079, Final residual = 9.436658214e-05, No Iterations 2
DILUPBiCGStab:  Solving for CO2, Initial residual = 0.001727587503, Final residual = 6.210671396e-05, No Iterations 1
DILUPBiCGStab:  Solving for H2O, Initial residual = 0.001698376239, Final residual = 6.838586995e-05, No Iterations 1
 In EEqn.H: min/max(T) = 299.9994157, 1180.002361
   Min Q:-4970014.97
   Max Q:102089365.4
  Before: min/max(he) = 1868.605409, 1092542.146
DILUPBiCGStab:  Solving for h, Initial residual = 0.00590397188, Final residual = 0.0002376160203, No Iterations 2
After: min/max(he) = 1868.605409, 1077086.961
In thermoCorrectByCantera.h
Before bnds
Before patch loop
Ended thermoCorrect
min/max(T) = 299.9994078, 1168.553004
Min Q:-4970014.97
Max Q:102089365.4
DICPCG:  Solving for p, Initial residual = 0.111376439, Final residual = 0.001088663053, No Iterations 653
diagonal:  Solving for rho, Initial residual = 0, Final residual = 0, No Iterations 0
time step continuity errors : sum local = 4.603612704e-08, global = 1.263936694e-11, cumulative = 0.0001847345118
DICPCG:  Solving for p, Initial residual = 0.08807779469, Final residual = 9.785985321e-06, No Iterations 789
diagonal:  Solving for rho, Initial residual = 0, Final residual = 0, No Iterations 0
time step continuity errors : sum local = 2.248885328e-09, global = 5.058386763e-14, cumulative = 0.0001847345119
ExecutionTime = 1767.34 s  ClockTime = 1767 s

    min/max/integ(Walls) = -39186.61876, 0.03160279608, -4.769356168
Courant Number mean: 0.4548347504 max: 1.004615811
deltaT = 0.000523374861
---NormalisedGradT: min = min(normalisedGradT) [0 0 0 0 0 0 0] 2.282614023e-11   max = max(normalisedGradT) [0 0 0 0 0 0 0] 1
Time = 0.347924

Before mesh update
Time before mesh update
ExecutionTime = 1768.01 s  ClockTime = 1768 s

Time after mesh update
ExecutionTime = 1768.01 s  ClockTime = 1768 s

After mesh update: 0
diagonal:  Solving for rho, Initial residual = 0, Final residual = 0, No Iterations 0
PIMPLE: iteration 1
DILUPBiCGStab:  Solving for Ux, Initial residual = 0.005537387525, Final residual = 0.0001227853119, No Iterations 2
DILUPBiCGStab:  Solving for Uy, Initial residual = 0.01101112576, Final residual = 0.0002713287203, No Iterations 2
DILUPBiCGStab:  Solving for Uz, Initial residual = 0.01022504858, Final residual = 0.0004733410295, No Iterations 2
Before reaction->correct():
Time before reaction
ExecutionTime = 1771.37 s  ClockTime = 1771 s

Time after reaction
ExecutionTime = 1774.32 s  ClockTime = 1774 s

Done reaction->correct():
DILUPBiCGStab:  Solving for CH4, Initial residual = 0.0004741092578, Final residual = 1.162710628e-05, No Iterations 2
DILUPBiCGStab:  Solving for CH2, Initial residual = 0.002401611674, Final residual = 3.694474942e-05, No Iterations 2
DILUPBiCGStab:  Solving for H2, Initial residual = 0.0005003037405, Final residual = 1.469104682e-05, No Iterations 3
DILUPBiCGStab:  Solving for O2, Initial residual = 0.001734798007, Final residual = 6.03232587e-05, No Iterations 1
DILUPBiCGStab:  Solving for CO, Initial residual = 0.002894895908, Final residual = 9.437580272e-05, No Iterations 2
DILUPBiCGStab:  Solving for CO2, Initial residual = 0.001723454152, Final residual = 5.989139733e-05, No Iterations 1
DILUPBiCGStab:  Solving for H2O, Initial residual = 0.001694067226, Final residual = 6.65544427e-05, No Iterations 1
 In EEqn.H: min/max(T) = 299.9994078, 1168.553004
   Min Q:-4806998.412
   Max Q:98643707.06
  Before: min/max(he) = 1868.605409, 1077086.961
DILUPBiCGStab:  Solving for h, Initial residual = 0.005963736226, Final residual = 0.0002281805511, No Iterations 2
After: min/max(he) = 1868.605409, 1059767.679
In thermoCorrectByCantera.h
Before bnds
Before patch loop
Ended thermoCorrect
min/max(T) = 299.9993958, 1155.696062
Min Q:-4806998.412
Max Q:98643707.06
DICPCG:  Solving for p, Initial residual = 0.0936084881, Final residual = 0.0009307655042, No Iterations 663
diagonal:  Solving for rho, Initial residual = 0, Final residual = 0, No Iterations 0
time step continuity errors : sum local = 3.868688326e-08, global = 5.195237297e-12, cumulative = 0.000184734517
DICPCG:  Solving for p, Initial residual = 0.08602091144, Final residual = 9.910969381e-06, No Iterations 796
diagonal:  Solving for rho, Initial residual = 0, Final residual = 0, No Iterations 0
time step continuity errors : sum local = 2.242165546e-09, global = 1.504536117e-13, cumulative = 0.0001847345172
ExecutionTime = 1853.69 s  ClockTime = 1854 s

    min/max/integ(Walls) = -38469.4892, 0.04135011169, -4.652529152
Courant Number mean: 0.4557886422 max: 1.003976391
deltaT = 0.0005213019604
---NormalisedGradT: min = min(normalisedGradT) [0 0 0 0 0 0 0] 1.856668018e-11   max = max(normalisedGradT) [0 0 0 0 0 0 0] 1
Time = 0.348445

Before mesh update
Time before mesh update
ExecutionTime = 1854.36 s  ClockTime = 1854 s

Time after mesh update
ExecutionTime = 1854.36 s  ClockTime = 1854 s

After mesh update: 0
diagonal:  Solving for rho, Initial residual = 0, Final residual = 0, No Iterations 0
PIMPLE: iteration 1
DILUPBiCGStab:  Solving for Ux, Initial residual = 0.004839249758, Final residual = 0.0001105129998, No Iterations 2
DILUPBiCGStab:  Solving for Uy, Initial residual = 0.0114287151, Final residual = 0.0002942679937, No Iterations 2
DILUPBiCGStab:  Solving for Uz, Initial residual = 0.01013560653, Final residual = 0.0004713156143, No Iterations 2
Before reaction->correct():
Time before reaction
ExecutionTime = 1857.94 s  ClockTime = 1858 s

Time after reaction
ExecutionTime = 1860.83 s  ClockTime = 1861 s

Done reaction->correct():
DILUPBiCGStab:  Solving for CH4, Initial residual = 0.0004714238205, Final residual = 1.10953092e-05, No Iterations 2
DILUPBiCGStab:  Solving for CH2, Initial residual = 0.00238760696, Final residual = 3.42553602e-05, No Iterations 2
DILUPBiCGStab:  Solving for H2, Initial residual = 0.0004975408441, Final residual = 1.464336846e-05, No Iterations 3
DILUPBiCGStab:  Solving for O2, Initial residual = 0.001730677114, Final residual = 5.866478808e-05, No Iterations 1
DILUPBiCGStab:  Solving for CO, Initial residual = 0.002877168147, Final residual = 9.246480185e-05, No Iterations 2
DILUPBiCGStab:  Solving for CO2, Initial residual = 0.001719224894, Final residual = 5.751614955e-05, No Iterations 1
DILUPBiCGStab:  Solving for H2O, Initial residual = 0.001690238959, Final residual = 6.499185828e-05, No Iterations 1
 In EEqn.H: min/max(T) = 299.9993958, 1155.696062
   Min Q:-4637963.997
   Max Q:94595366.5
  Before: min/max(he) = 1868.605409, 1059767.679
DILUPBiCGStab:  Solving for h, Initial residual = 0.006026083571, Final residual = 0.0002203345968, No Iterations 2
After: min/max(he) = 1868.605409, 1041386.565
In thermoCorrectByCantera.h
Before bnds
Before patch loop
Ended thermoCorrect
min/max(T) = 299.9994486, 1141.947537
Min Q:-4637963.997
Max Q:94595366.5
DICPCG:  Solving for p, Initial residual = 0.1007366768, Final residual = 0.00097613412, No Iterations 662
diagonal:  Solving for rho, Initial residual = 0, Final residual = 0, No Iterations 0
time step continuity errors : sum local = 3.902985506e-08, global = -2.552466539e-12, cumulative = 0.0001847345146
DICPCG:  Solving for p, Initial residual = 0.07410937659, Final residual = 9.705045477e-06, No Iterations 802
diagonal:  Solving for rho, Initial residual = 0, Final residual = 0, No Iterations 0
time step continuity errors : sum local = 2.235519708e-09, global = 1.117120702e-13, cumulative = 0.0001847345148
ExecutionTime = 1940.84 s  ClockTime = 1941 s

volFieldValue Qdot_volIntegrate write:
    volIntegrate(region0) of Qdot = 1.473400212

volFieldValue AFlame_volIntegrate write:
    volIntegrate(region0) of interfaceAreaFlame = 0.0001805251967

    min/max/integ(Walls) = -37727.07504, 0.0361643745, -4.53714052
wallHeatFlux wallHeatFlux1 write:
    writing field wallHeatFlux
volFieldValue volFieldValue1 write:
    max(region0) of Qdot = 94595366.5

Courant Number mean: 0.4565627681 max: 1.003381947
deltaT = 0.0005195448872
---NormalisedGradT: min = min(normalisedGradT) [0 0 0 0 0 0 0] 5.759041477e-11   max = max(normalisedGradT) [0 0 0 0 0 0 0] 1
Time = 0.348965

Before mesh update
Time before mesh update
ExecutionTime = 1941.59 s  ClockTime = 1942 s

Time after mesh update
ExecutionTime = 1941.59 s  ClockTime = 1942 s

After mesh update: 0
diagonal:  Solving for rho, Initial residual = 0, Final residual = 0, No Iterations 0
PIMPLE: iteration 1
DILUPBiCGStab:  Solving for Ux, Initial residual = 0.004256162491, Final residual = 9.532975814e-05, No Iterations 2
DILUPBiCGStab:  Solving for Uy, Initial residual = 0.0115516453, Final residual = 0.0002984675053, No Iterations 2
DILUPBiCGStab:  Solving for Uz, Initial residual = 0.01036313059, Final residual = 0.0004831795167, No Iterations 2
Before reaction->correct():
Time before reaction
ExecutionTime = 1945.17 s  ClockTime = 1945 s

Time after reaction
ExecutionTime = 1948.06 s  ClockTime = 1948 s

Done reaction->correct():
DILUPBiCGStab:  Solving for CH4, Initial residual = 0.0004685332361, Final residual = 1.055206638e-05, No Iterations 2
DILUPBiCGStab:  Solving for CH2, Initial residual = 0.00237333319, Final residual = 3.176255164e-05, No Iterations 2
DILUPBiCGStab:  Solving for H2, Initial residual = 0.0004955621362, Final residual = 1.470938728e-05, No Iterations 3
DILUPBiCGStab:  Solving for O2, Initial residual = 0.001725974393, Final residual = 5.712251205e-05, No Iterations 1
DILUPBiCGStab:  Solving for CO, Initial residual = 0.0028568311, Final residual = 8.79943314e-05, No Iterations 2
DILUPBiCGStab:  Solving for CO2, Initial residual = 0.001714105712, Final residual = 5.503932399e-05, No Iterations 1
DILUPBiCGStab:  Solving for H2O, Initial residual = 0.001686028515, Final residual = 6.369031382e-05, No Iterations 1
 In EEqn.H: min/max(T) = 299.9994486, 1141.947537
   Min Q:-4487682.139
   Max Q:92809493.69
  Before: min/max(he) = 1868.605409, 1041386.565
DILUPBiCGStab:  Solving for h, Initial residual = 0.006090621193, Final residual = 0.0002087953476, No Iterations 2
After: min/max(he) = 1868.605409, 1022890.745
In thermoCorrectByCantera.h
Before bnds
Before patch loop
Ended thermoCorrect
min/max(T) = 299.9995447, 1128.074627
Min Q:-4487682.139
Max Q:92809493.69
DICPCG:  Solving for p, Initial residual = 0.1329492217, Final residual = 0.001318189826, No Iterations 653
diagonal:  Solving for rho, Initial residual = 0, Final residual = 0, No Iterations 0
time step continuity errors : sum local = 5.146168119e-08, global = 1.355830235e-11, cumulative = 0.0001847345283
DICPCG:  Solving for p, Initial residual = 0.09765121721, Final residual = 9.660233691e-06, No Iterations 819
diagonal:  Solving for rho, Initial residual = 0, Final residual = 0, No Iterations 0
time step continuity errors : sum local = 2.246558988e-09, global = -3.169373358e-14, cumulative = 0.0001847345283
ExecutionTime = 2028.29 s  ClockTime = 2028 s

    min/max/integ(Walls) = -36975.21707, 0.02592735617, -4.423180176
Courant Number mean: 0.457038584 max: 1.002582735
deltaT = 0.0005182064969
---NormalisedGradT: min = min(normalisedGradT) [0 0 0 0 0 0 0] 2.744282886e-11   max = max(normalisedGradT) [0 0 0 0 0 0 0] 1
Time = 0.349483

Before mesh update
Time before mesh update
ExecutionTime = 2028.95 s  ClockTime = 2029 s

Time after mesh update
ExecutionTime = 2028.95 s  ClockTime = 2029 s

After mesh update: 0
diagonal:  Solving for rho, Initial residual = 0, Final residual = 0, No Iterations 0
PIMPLE: iteration 1
DILUPBiCGStab:  Solving for Ux, Initial residual = 0.003722620182, Final residual = 8.471959771e-05, No Iterations 2
DILUPBiCGStab:  Solving for Uy, Initial residual = 0.01200033357, Final residual = 0.000311571429, No Iterations 2
DILUPBiCGStab:  Solving for Uz, Initial residual = 0.01014382132, Final residual = 0.0004685783816, No Iterations 2
Before reaction->correct():
Time before reaction
ExecutionTime = 2032.33 s  ClockTime = 2032 s

Time after reaction
ExecutionTime = 2035.21 s  ClockTime = 2035 s

Done reaction->correct():
DILUPBiCGStab:  Solving for CH4, Initial residual = 0.0004659541598, Final residual = 1.005265344e-05, No Iterations 2
DILUPBiCGStab:  Solving for CH2, Initial residual = 0.002359561616, Final residual = 2.967025945e-05, No Iterations 2
DILUPBiCGStab:  Solving for H2, Initial residual = 0.0004944654309, Final residual = 1.484019309e-05, No Iterations 3
DILUPBiCGStab:  Solving for O2, Initial residual = 0.001720926382, Final residual = 5.572375648e-05, No Iterations 1
DILUPBiCGStab:  Solving for CO, Initial residual = 0.002835228243, Final residual = 7.719388249e-05, No Iterations 2
DILUPBiCGStab:  Solving for CO2, Initial residual = 0.001708424234, Final residual = 5.261155969e-05, No Iterations 1
DILUPBiCGStab:  Solving for H2O, Initial residual = 0.001681633968, Final residual = 6.258643722e-05, No Iterations 1
 In EEqn.H: min/max(T) = 299.9995447, 1128.074627
   Min Q:-4328829.155
   Max Q:91244892.61
  Before: min/max(he) = 1868.605409, 1022890.745
DILUPBiCGStab:  Solving for h, Initial residual = 0.006158757752, Final residual = 0.0002014867993, No Iterations 2
After: min/max(he) = 1868.605409, 1005043.329
In thermoCorrectByCantera.h
Before bnds
Before patch loop
Ended thermoCorrect
min/max(T) = 299.9996811, 1114.629113
Min Q:-4328829.155
Max Q:91244892.61
DICPCG:  Solving for p, Initial residual = 0.1292964898, Final residual = 0.001262834742, No Iterations 642
diagonal:  Solving for rho, Initial residual = 0, Final residual = 0, No Iterations 0
time step continuity errors : sum local = 4.649670581e-08, global = -1.961410023e-11, cumulative = 0.0001847345087
DICPCG:  Solving for p, Initial residual = 0.08434180001, Final residual = 9.936369258e-06, No Iterations 801
diagonal:  Solving for rho, Initial residual = 0, Final residual = 0, No Iterations 0
time step continuity errors : sum local = 2.214489917e-09, global = -2.854904638e-13, cumulative = 0.0001847345084
ExecutionTime = 2113.25 s  ClockTime = 2113 s

    min/max/integ(Walls) = -36195.15006, 0.01737160041, -4.310730222
Courant Number mean: 0.4574415346 max: 1.002429169
deltaT = 0.0005169507363
---NormalisedGradT: min = min(normalisedGradT) [0 0 0 0 0 0 0] 7.503093512e-12   max = max(normalisedGradT) [0 0 0 0 0 0 0] 1
Time = 0.35

Before mesh update
Time before mesh update
ExecutionTime = 2113.92 s  ClockTime = 2114 s

Time after mesh update
ExecutionTime = 2113.92 s  ClockTime = 2114 s

After mesh update: 0
diagonal:  Solving for rho, Initial residual = 0, Final residual = 0, No Iterations 0
PIMPLE: iteration 1
DILUPBiCGStab:  Solving for Ux, Initial residual = 0.003407068636, Final residual = 7.471829588e-05, No Iterations 2
DILUPBiCGStab:  Solving for Uy, Initial residual = 0.012005656, Final residual = 0.0003095517017, No Iterations 2
DILUPBiCGStab:  Solving for Uz, Initial residual = 0.01050304115, Final residual = 0.000444008262, No Iterations 2
Before reaction->correct():
Time before reaction
ExecutionTime = 2117.28 s  ClockTime = 2117 s

Time after reaction
ExecutionTime = 2120.19 s  ClockTime = 2120 s

Done reaction->correct():
DILUPBiCGStab:  Solving for CH4, Initial residual = 0.0004631134527, Final residual = 9.560964898e-06, No Iterations 2
DILUPBiCGStab:  Solving for CH2, Initial residual = 0.002345297687, Final residual = 2.781684635e-05, No Iterations 2
DILUPBiCGStab:  Solving for H2, Initial residual = 0.0004938894627, Final residual = 1.509387771e-05, No Iterations 3
DILUPBiCGStab:  Solving for O2, Initial residual = 0.001714659402, Final residual = 5.440652654e-05, No Iterations 1
DILUPBiCGStab:  Solving for CO, Initial residual = 0.002812616057, Final residual = 7.21013285e-05, No Iterations 2
DILUPBiCGStab:  Solving for CO2, Initial residual = 0.001701322211, Final residual = 5.019628393e-05, No Iterations 1
DILUPBiCGStab:  Solving for H2O, Initial residual = 0.001676151469, Final residual = 6.160632848e-05, No Iterations 1
 In EEqn.H: min/max(T) = 299.9996811, 1114.629113
   Min Q:-4164829.815
   Max Q:89247960.11
  Before: min/max(he) = 1868.605409, 1005043.329
DILUPBiCGStab:  Solving for h, Initial residual = 0.006226699333, Final residual = 0.0001916846509, No Iterations 2
After: min/max(he) = 1868.605409, 987036.1014
[...]
time step continuity errors : sum local = 5.307578237e-09, global = -8.462393039e-13, cumulative = 0.0001847344792
ExecutionTime = 7383.24 s  ClockTime = 7386 s

    min/max/integ(Walls) = -3270.130164, 0.05268929271, -0.720896802
Courant Number mean: 0.2551808286 max: 0.9854673363
deltaT = 0.001117937434
---NormalisedGradT: min = min(normalisedGradT) [0 0 0 0 0 0 0] 2.922162503e-09   max = max(normalisedGradT) [0 0 0 0 0 0 0] 1
Time = 0.39476

Before mesh update
Time before mesh update
ExecutionTime = 7383.91 s  ClockTime = 7386 s

Time after mesh update
ExecutionTime = 7383.91 s  ClockTime = 7386 s

After mesh update: 0
diagonal:  Solving for rho, Initial residual = 0, Final residual = 0, No Iterations 0
PIMPLE: iteration 1
DILUPBiCGStab:  Solving for Ux, Initial residual = 0.01488658981, Final residual = 0.000209531921, No Iterations 2
DILUPBiCGStab:  Solving for Uy, Initial residual = 0.01037992971, Final residual = 0.000162261485, No Iterations 2
DILUPBiCGStab:  Solving for Uz, Initial residual = 0.008475337347, Final residual = 0.0001602567394, No Iterations 2
Before reaction->correct():
Time before reaction
ExecutionTime = 7387.41 s  ClockTime = 7390 s

Time after reaction
ExecutionTime = 7390.13 s  ClockTime = 7392 s

Done reaction->correct():
DILUPBiCGStab:  Solving for CH4, Initial residual = 0.0003421443465, Final residual = 1.578425786e-05, No Iterations 1
DILUPBiCGStab:  Solving for CH2, Initial residual = 0.00128553299, Final residual = 5.702531096e-05, No Iterations 1
DILUPBiCGStab:  Solving for H2, Initial residual = 0.0004707236419, Final residual = 1.365239477e-05, No Iterations 3
DILUPBiCGStab:  Solving for O2, Initial residual = 0.0009695316725, Final residual = 2.99732743e-05, No Iterations 1
DILUPBiCGStab:  Solving for CO, Initial residual = 0.001481404936, Final residual = 5.960697653e-05, No Iterations 1
DILUPBiCGStab:  Solving for CO2, Initial residual = 0.0009430193865, Final residual = 2.298802539e-05, No Iterations 1
DILUPBiCGStab:  Solving for H2O, Initial residual = 0.0009625558646, Final residual = 3.252359177e-05, No Iterations 1
 In EEqn.H: min/max(T) = 299.9995147, 404.0138195
   Min Q:-538.1036775
   Max Q:1.454946313
  Before: min/max(he) = 1868.157729, 121739.3026
DILUPBiCGStab:  Solving for h, Initial residual = 0.008497876793, Final residual = 0.0002105933968, No Iterations 2
After: min/max(he) = 1868.156966, 117764.8548
In thermoCorrectByCantera.h
Before bnds
Before patch loop
Ended thermoCorrect
min/max(T) = 299.99951, 400.5815127
Min Q:-538.1036775
Max Q:1.454946313
DICPCG:  Solving for p, Initial residual = 0.08225603199, Final residual = 0.0008159848512, No Iterations 607
diagonal:  Solving for rho, Initial residual = 0, Final residual = 0, No Iterations 0
time step continuity errors : sum local = 3.25654853e-08, global = -2.263396864e-12, cumulative = 0.0001847344769
DICPCG:  Solving for p, Initial residual = 0.05597196157, Final residual = 9.196054411e-06, No Iterations 723
diagonal:  Solving for rho, Initial residual = 0, Final residual = 0, No Iterations 0
time step continuity errors : sum local = 5.19072055e-09, global = -8.855825256e-13, cumulative = 0.0001847344761
ExecutionTime = 7462.86 s  ClockTime = 7465 s

volFieldValue Qdot_volIntegrate write:
    volIntegrate(region0) of Qdot = -1.282288848e-05

volFieldValue AFlame_volIntegrate write:
    volIntegrate(region0) of interfaceAreaFlame = 0.0001571378515

    min/max/integ(Walls) = -3144.177319, 0.05346557649, -0.6989789003
wallHeatFlux wallHeatFlux1 write:
    writing field wallHeatFlux
volFieldValue volFieldValue1 write:
    max(region0) of Qdot = 1.454946313

Courant Number mean: 0.2515739613 max: 0.9853795704
deltaT = 0.001134524672
---NormalisedGradT: min = min(normalisedGradT) [0 0 0 0 0 0 0] 5.689806072e-09   max = max(normalisedGradT) [0 0 0 0 0 0 0] 1
Time = 0.395894

Before mesh update
Time before mesh update
ExecutionTime = 7463.6 s  ClockTime = 7466 s

Time after mesh update
ExecutionTime = 7463.6 s  ClockTime = 7466 s

After mesh update: 0
diagonal:  Solving for rho, Initial residual = 0, Final residual = 0, No Iterations 0
PIMPLE: iteration 1
DILUPBiCGStab:  Solving for Ux, Initial residual = 0.01511299617, Final residual = 0.0002195539396, No Iterations 2
DILUPBiCGStab:  Solving for Uy, Initial residual = 0.01028505364, Final residual = 0.0001656765922, No Iterations 2
DILUPBiCGStab:  Solving for Uz, Initial residual = 0.008300123294, Final residual = 0.0001560792237, No Iterations 2
Before reaction->correct():
Time before reaction
ExecutionTime = 7467.16 s  ClockTime = 7470 s

Time after reaction
ExecutionTime = 7469.87 s  ClockTime = 7472 s

Done reaction->correct():
DILUPBiCGStab:  Solving for CH4, Initial residual = 0.0003422020146, Final residual = 1.568726968e-05, No Iterations 1
DILUPBiCGStab:  Solving for CH2, Initial residual = 0.00127171912, Final residual = 5.613927933e-05, No Iterations 1
DILUPBiCGStab:  Solving for H2, Initial residual = 0.000472633773, Final residual = 1.534630449e-05, No Iterations 3
DILUPBiCGStab:  Solving for O2, Initial residual = 0.0009590799298, Final residual = 2.988639788e-05, No Iterations 1
DILUPBiCGStab:  Solving for CO, Initial residual = 0.001469429295, Final residual = 5.886025567e-05, No Iterations 1
DILUPBiCGStab:  Solving for CO2, Initial residual = 0.0009327424522, Final residual = 2.29920386e-05, No Iterations 1
DILUPBiCGStab:  Solving for H2O, Initial residual = 0.0009522645778, Final residual = 3.235141262e-05, No Iterations 1
 In EEqn.H: min/max(T) = 299.99951, 400.5815127
   Min Q:-449.6238035
   Max Q:1.154466844
  Before: min/max(he) = 1868.156966, 117764.8548
DILUPBiCGStab:  Solving for h, Initial residual = 0.008541290781, Final residual = 0.0002095416184, No Iterations 2
After: min/max(he) = 1868.160415, 113922.9143
In thermoCorrectByCantera.h
Before bnds
Before patch loop
Ended thermoCorrect
min/max(T) = 299.9995082, 397.2623113
Min Q:-449.6238035
Max Q:1.154466844
DICPCG:  Solving for p, Initial residual = 0.07769708219, Final residual = 0.0007669915367, No Iterations 623
diagonal:  Solving for rho, Initial residual = 0, Final residual = 0, No Iterations 0
time step continuity errors : sum local = 3.0256039e-08, global = 4.899211072e-13, cumulative = 0.0001847344765
DICPCG:  Solving for p, Initial residual = 0.05441138789, Final residual = 9.712841031e-06, No Iterations 778
diagonal:  Solving for rho, Initial residual = 0, Final residual = 0, No Iterations 0
time step continuity errors : sum local = 5.477005256e-09, global = 6.651550466e-13, cumulative = 0.0001847344772
ExecutionTime = 7546.17 s  ClockTime = 7549 s

volFieldValue Qdot_volIntegrate write:
    volIntegrate(region0) of Qdot = -1.143692722e-05

volFieldValue AFlame_volIntegrate write:
    volIntegrate(region0) of interfaceAreaFlame = 0.0001561812709

    min/max/integ(Walls) = -3023.980358, 0.05058512202, -0.6776504324
wallHeatFlux wallHeatFlux1 write:
    writing field wallHeatFlux
volFieldValue volFieldValue1 write:
    max(region0) of Qdot = 1.154466844

Courant Number mean: 0.2480264204 max: 0.9853053098
deltaT = 0.001151444796
---NormalisedGradT: min = min(normalisedGradT) [0 0 0 0 0 0 0] 1.127919225e-09   max = max(normalisedGradT) [0 0 0 0 0 0 0] 1
Time = 0.397046

Before mesh update
Time before mesh update
ExecutionTime = 7546.89 s  ClockTime = 7549 s

Time after mesh update
ExecutionTime = 7546.89 s  ClockTime = 7549 s

After mesh update: 0
diagonal:  Solving for rho, Initial residual = 0, Final residual = 0, No Iterations 0
PIMPLE: iteration 1
DILUPBiCGStab:  Solving for Ux, Initial residual = 0.01496637959, Final residual = 0.000227395496, No Iterations 2
DILUPBiCGStab:  Solving for Uy, Initial residual = 0.01017854994, Final residual = 0.0001691589407, No Iterations 2
DILUPBiCGStab:  Solving for Uz, Initial residual = 0.008095652662, Final residual = 0.0001523582987, No Iterations 2
Before reaction->correct():
Time before reaction
ExecutionTime = 7550.36 s  ClockTime = 7553 s

Time after reaction
ExecutionTime = 7553.07 s  ClockTime = 7556 s

Done reaction->correct():
DILUPBiCGStab:  Solving for CH4, Initial residual = 0.0003423698616, Final residual = 1.559335036e-05, No Iterations 1
DILUPBiCGStab:  Solving for CH2, Initial residual = 0.001258265474, Final residual = 5.529679665e-05, No Iterations 1
DILUPBiCGStab:  Solving for H2, Initial residual = 0.000474696156, Final residual = 2.372601864e-05, No Iterations 2
DILUPBiCGStab:  Solving for O2, Initial residual = 0.000948869621, Final residual = 2.980521043e-05, No Iterations 1
DILUPBiCGStab:  Solving for CO, Initial residual = 0.001457971146, Final residual = 5.81541878e-05, No Iterations 1
DILUPBiCGStab:  Solving for CO2, Initial residual = 0.0009227188025, Final residual = 2.300295703e-05, No Iterations 1
DILUPBiCGStab:  Solving for H2O, Initial residual = 0.000942209477, Final residual = 3.219157687e-05, No Iterations 1
 In EEqn.H: min/max(T) = 299.9995082, 397.2623113
   Min Q:-378.3049977
   Max Q:0.9293815327
  Before: min/max(he) = 1868.160415, 113922.9143
DILUPBiCGStab:  Solving for h, Initial residual = 0.008586725866, Final residual = 0.0002105324478, No Iterations 2
After: min/max(he) = 1868.16336, 110186.67
In thermoCorrectByCantera.h
Before bnds
Before patch loop
Ended thermoCorrect
min/max(T) = 299.9995062, 394.0434827
Min Q:-378.3049977
Max Q:0.9293815327
DICPCG:  Solving for p, Initial residual = 0.08493982295, Final residual = 0.0008364585926, No Iterations 581
diagonal:  Solving for rho, Initial residual = 0, Final residual = 0, No Iterations 0
time step continuity errors : sum local = 3.271203116e-08, global = 9.113816831e-13, cumulative = 0.0001847344781
DICPCG:  Solving for p, Initial residual = 0.06039954294, Final residual = 9.807893549e-06, No Iterations 763
diagonal:  Solving for rho, Initial residual = 0, Final residual = 0, No Iterations 0
time step continuity errors : sum local = 5.508135762e-09, global = 4.526369318e-13, cumulative = 0.0001847344786
ExecutionTime = 7626.28 s  ClockTime = 7629 s

    min/max/integ(Walls) = -2907.817047, 0.05070539354, -0.656889588
Courant Number mean: 0.2446704547 max: 0.9853169963
deltaT = 0.001168603404
---NormalisedGradT: min = min(normalisedGradT) [0 0 0 0 0 0 0] 2.509025172e-09   max = max(normalisedGradT) [0 0 0 0 0 0 0] 1
Time = 0.398214

Before mesh update
Time before mesh update
ExecutionTime = 7626.94 s  ClockTime = 7629 s

Time after mesh update
ExecutionTime = 7626.94 s  ClockTime = 7629 s

After mesh update: 0
diagonal:  Solving for rho, Initial residual = 0, Final residual = 0, No Iterations 0
PIMPLE: iteration 1
DILUPBiCGStab:  Solving for Ux, Initial residual = 0.01463779301, Final residual = 0.0002332087876, No Iterations 2
DILUPBiCGStab:  Solving for Uy, Initial residual = 0.00996824811, Final residual = 0.0001727054632, No Iterations 2
DILUPBiCGStab:  Solving for Uz, Initial residual = 0.008051953643, Final residual = 0.0001628431064, No Iterations 2
Before reaction->correct():
Time before reaction
ExecutionTime = 7630.46 s  ClockTime = 7633 s

Time after reaction
ExecutionTime = 7633.16 s  ClockTime = 7636 s

Done reaction->correct():
DILUPBiCGStab:  Solving for CH4, Initial residual = 0.000342739319, Final residual = 1.551003146e-05, No Iterations 1
DILUPBiCGStab:  Solving for CH2, Initial residual = 0.001245619852, Final residual = 5.448228536e-05, No Iterations 1
DILUPBiCGStab:  Solving for H2, Initial residual = 0.0004770032297, Final residual = 2.088828664e-05, No Iterations 2
DILUPBiCGStab:  Solving for O2, Initial residual = 0.0009392535696, Final residual = 2.972368447e-05, No Iterations 1
DILUPBiCGStab:  Solving for CO, Initial residual = 0.00144744521, Final residual = 5.748002916e-05, No Iterations 1
DILUPBiCGStab:  Solving for CO2, Initial residual = 0.0009133084276, Final residual = 2.301611765e-05, No Iterations 1
DILUPBiCGStab:  Solving for H2O, Initial residual = 0.000932739535, Final residual = 3.202815893e-05, No Iterations 1
 In EEqn.H: min/max(T) = 299.9995062, 394.0434827
   Min Q:-317.8998794
   Max Q:0.7485088284
  Before: min/max(he) = 1868.16336, 110186.67
DILUPBiCGStab:  Solving for h, Initial residual = 0.00863403032, Final residual = 0.0002100316093, No Iterations 2
After: min/max(he) = 1868.161763, 106576.4952
In thermoCorrectByCantera.h
Before bnds
Before patch loop
Ended thermoCorrect
min/max(T) = 299.9994994, 390.9220071
Min Q:-317.8998794
Max Q:0.7485088284
DICPCG:  Solving for p, Initial residual = 0.09318227367, Final residual = 0.0008939004875, No Iterations 627
diagonal:  Solving for rho, Initial residual = 0, Final residual = 0, No Iterations 0
time step continuity errors : sum local = 3.443300582e-08, global = -3.636689239e-12, cumulative = 0.0001847344749
DICPCG:  Solving for p, Initial residual = 0.06585456299, Final residual = 9.728567254e-06, No Iterations 779
diagonal:  Solving for rho, Initial residual = 0, Final residual = 0, No Iterations 0
time step continuity errors : sum local = 5.671774767e-09, global = 4.293184356e-13, cumulative = 0.0001847344754
ExecutionTime = 7709.58 s  ClockTime = 7712 s

volFieldValue Qdot_volIntegrate write:
    volIntegrate(region0) of Qdot = -9.21992978e-06

volFieldValue AFlame_volIntegrate write:
    volIntegrate(region0) of interfaceAreaFlame = 0.0001542701583

    min/max/integ(Walls) = -2796.42149, 0.04909251756, -0.6366740754
wallHeatFlux wallHeatFlux1 write:
    writing field wallHeatFlux
volFieldValue volFieldValue1 write:
    max(region0) of Qdot = 0.7485088284

Courant Number mean: 0.241237046 max: 0.9851355571
deltaT = 0.001186236144
---NormalisedGradT: min = min(normalisedGradT) [0 0 0 0 0 0 0] 1.046740955e-08   max = max(normalisedGradT) [0 0 0 0 0 0 0] 1
Time = 0.3994

Before mesh update
Time before mesh update
ExecutionTime = 7710.33 s  ClockTime = 7713 s

Time after mesh update
ExecutionTime = 7710.33 s  ClockTime = 7713 s

After mesh update: 0
diagonal:  Solving for rho, Initial residual = 0, Final residual = 0, No Iterations 0
PIMPLE: iteration 1
DILUPBiCGStab:  Solving for Ux, Initial residual = 0.01542289609, Final residual = 0.0002496296348, No Iterations 2
DILUPBiCGStab:  Solving for Uy, Initial residual = 0.01004014977, Final residual = 0.0001774458039, No Iterations 2
DILUPBiCGStab:  Solving for Uz, Initial residual = 0.00777450922, Final residual = 0.000159095668, No Iterations 2
Before reaction->correct():
Time before reaction
ExecutionTime = 7713.65 s  ClockTime = 7716 s

Time after reaction
ExecutionTime = 7716.33 s  ClockTime = 7719 s

Done reaction->correct():
DILUPBiCGStab:  Solving for CH4, Initial residual = 0.0003431135868, Final residual = 1.542780456e-05, No Iterations 1
DILUPBiCGStab:  Solving for CH2, Initial residual = 0.001232996853, Final residual = 5.369624677e-05, No Iterations 1
DILUPBiCGStab:  Solving for H2, Initial residual = 0.0004794430161, Final residual = 2.276728103e-05, No Iterations 2
DILUPBiCGStab:  Solving for O2, Initial residual = 0.0009296536092, Final residual = 2.9639303e-05, No Iterations 1
DILUPBiCGStab:  Solving for CO, Initial residual = 0.001437094848, Final residual = 5.684155327e-05, No Iterations 1
DILUPBiCGStab:  Solving for CO2, Initial residual = 0.0009039106914, Final residual = 2.303072059e-05, No Iterations 1
DILUPBiCGStab:  Solving for H2O, Initial residual = 0.0009232838741, Final residual = 3.186752601e-05, No Iterations 1
 In EEqn.H: min/max(T) = 299.9994994, 390.9220071
   Min Q:-268.1141921
   Max Q:0.6099267848
  Before: min/max(he) = 1868.161763, 106576.4952
DILUPBiCGStab:  Solving for h, Initial residual = 0.008682267614, Final residual = 0.0002110938803, No Iterations 2
After: min/max(he) = 1868.171965, 103065.6749
In thermoCorrectByCantera.h
Before bnds
Before patch loop
Ended thermoCorrect
min/max(T) = 299.9995051, 387.8851565
Min Q:-268.1141921
Max Q:0.6099267848
DICPCG:  Solving for p, Initial residual = 0.07193992578, Final residual = 0.0006856717804, No Iterations 628
diagonal:  Solving for rho, Initial residual = 0, Final residual = 0, No Iterations 0
time step continuity errors : sum local = 2.639247848e-08, global = -1.120440255e-12, cumulative = 0.0001847344742
DICPCG:  Solving for p, Initial residual = 0.05221305859, Final residual = 9.96502296e-06, No Iterations 777
diagonal:  Solving for rho, Initial residual = 0, Final residual = 0, No Iterations 0
time step continuity errors : sum local = 5.757769128e-09, global = 5.0472592e-13, cumulative = 0.0001847344747
ExecutionTime = 7792.48 s  ClockTime = 7795 s

    min/max/integ(Walls) = -2688.796647, 0.04763245314, -0.6170021137
Courant Number mean: 0.2378684552 max: 0.9850647625
deltaT = 0.001204221477
---NormalisedGradT: min = min(normalisedGradT) [0 0 0 0 0 0 0] 3.380048678e-09   max = max(normalisedGradT) [0 0 0 0 0 0 0] 1
Time = 0.400605

Before mesh update
Time before mesh update
ExecutionTime = 7793.15 s  ClockTime = 7796 s

Time after mesh update
ExecutionTime = 7793.15 s  ClockTime = 7796 s

After mesh update: 0
diagonal:  Solving for rho, Initial residual = 0, Final residual = 0, No Iterations 0
PIMPLE: iteration 1
DILUPBiCGStab:  Solving for Ux, Initial residual = 0.01484802618, Final residual = 0.0002540981073, No Iterations 2
DILUPBiCGStab:  Solving for Uy, Initial residual = 0.009963846049, Final residual = 0.0001816444089, No Iterations 2
DILUPBiCGStab:  Solving for Uz, Initial residual = 0.007574934308, Final residual = 0.000159360376, No Iterations 2
Before reaction->correct():
Time before reaction
ExecutionTime = 7796.55 s  ClockTime = 7799 s

Time after reaction
ExecutionTime = 7799.24 s  ClockTime = 7802 s

Done reaction->correct():
DILUPBiCGStab:  Solving for CH4, Initial residual = 0.0003436458328, Final residual = 1.536063446e-05, No Iterations 1
DILUPBiCGStab:  Solving for CH2, Initial residual = 0.001220676723, Final residual = 5.295165296e-05, No Iterations 1
DILUPBiCGStab:  Solving for H2, Initial residual = 0.0004820729678, Final residual = 2.068772609e-05, No Iterations 2
DILUPBiCGStab:  Solving for O2, Initial residual = 0.0009201905804, Final residual = 2.957699412e-05, No Iterations 1
DILUPBiCGStab:  Solving for CO, Initial residual = 0.001427213322, Final residual = 5.624332715e-05, No Iterations 1
DILUPBiCGStab:  Solving for CO2, Initial residual = 0.0008946688752, Final residual = 2.305775194e-05, No Iterations 1
DILUPBiCGStab:  Solving for H2O, Initial residual = 0.0009139668614, Final residual = 3.17279567e-05, No Iterations 1
 In EEqn.H: min/max(T) = 299.9995051, 387.8851565
   Min Q:-226.6574219
   Max Q:0.4974981516
  Before: min/max(he) = 1868.171965, 103065.6749
DILUPBiCGStab:  Solving for h, Initial residual = 0.008733411794, Final residual = 0.0002111544929, No Iterations 2
After: min/max(he) = 1868.176313, 99661.03155
In thermoCorrectByCantera.h
Before bnds
Before patch loop
Ended thermoCorrect
min/max(T) = 299.9995043, 384.9413784
Min Q:-226.6574219
Max Q:0.4974981516
DICPCG:  Solving for p, Initial residual = 0.09184020995, Final residual = 0.000866601553, No Iterations 582
diagonal:  Solving for rho, Initial residual = 0, Final residual = 0, No Iterations 0
time step continuity errors : sum local = 3.282857354e-08, global = 1.296304884e-12, cumulative = 0.000184734476
DICPCG:  Solving for p, Initial residual = 0.06574748428, Final residual = 9.776516573e-06, No Iterations 724
diagonal:  Solving for rho, Initial residual = 0, Final residual = 0, No Iterations 0
time step continuity errors : sum local = 5.661268085e-09, global = -3.904070458e-13, cumulative = 0.0001847344757
ExecutionTime = 7871.25 s  ClockTime = 7874 s

volFieldValue Qdot_volIntegrate write:
    volIntegrate(region0) of Qdot = -7.577040793e-06

volFieldValue AFlame_volIntegrate write:
    volIntegrate(region0) of interfaceAreaFlame = 0.0001523710788

    min/max/integ(Walls) = -2585.686982, 0.04659921692, -0.597837154
wallHeatFlux wallHeatFlux1 write:
    writing field wallHeatFlux
volFieldValue volFieldValue1 write:
    max(region0) of Qdot = 0.4974981516

End

