/*---------------------------------------------------------------------------*\
| =========                 |                                                 |
| \\      /  F ield         | OpenFOAM: The Open Source CFD Toolbox           |
|  \\    /   O peration     | Version:  2406                                  |
|   \\  /    A nd           | Website:  www.openfoam.com                      |
|    \\/     M anipulation  |                                                 |
\*---------------------------------------------------------------------------*/
Build  : _630d60de3b-20240620 OPENFOAM=2406 version=v2406
Arch   : "LSB;label=32;scalar=64"
Exec   : reactingCTDyMFoam
Date   : May 13 2025
Time   : 14:42:14
Host   : i9900
PID    : 81068
I/O    : uncollated
/*---------------------------------------------------------------------------*\
| =========                 |                                                 |
| \\      /  F ield         | OpenFOAM: The Open Source CFD Toolbox           |
|  \\    /   O peration     | Version:  2406                                  |
|   \\  /    A nd           | Website:  www.openfoam.com                      |
|    \\/     M anipulation  |                                                 |
\*---------------------------------------------------------------------------*/
Build  : _630d60de3b-20240620 OPENFOAM=2406 version=v2406
Arch   : "LSB;label=32;scalar=64"
Exec   : reactingCTDyMFoam
Date   : May 13 2025
Time   : 14:42:14
Host   : i9900
PID    : 81070
I/O    : uncollated
/*---------------------------------------------------------------------------*\
| =========                 |                                                 |
| \\      /  F ield         | OpenFOAM: The Open Source CFD Toolbox           |
|  \\    /   O peration     | Version:  2406                                  |
|   \\  /    A nd           | Website:  www.openfoam.com                      |
|    \\/     M anipulation  |                                                 |
\*---------------------------------------------------------------------------*/
Build  : _630d60de3b-20240620 OPENFOAM=2406 version=v2406
Arch   : "LSB;label=32;scalar=64"
Exec   : reactingCTDyMFoam
Date   : May 13 2025
Time   : 14:42:14
Host   : i9900
PID    : 81071
I/O    : uncollated
/*---------------------------------------------------------------------------*\
| =========                 |                                                 |
| \\      /  F ield         | OpenFOAM: The Open Source CFD Toolbox           |
|  \\    /   O peration     | Version:  2406                                  |
|   \\  /    A nd           | Website:  www.openfoam.com                      |
|    \\/     M anipulation  |                                                 |
\*---------------------------------------------------------------------------*/
Build  : _630d60de3b-20240620 OPENFOAM=2406 version=v2406
Arch   : "LSB;label=32;scalar=64"
Exec   : reactingCTDyMFoam
Date   : May 13 2025
Time   : 14:42:14
Host   : i9900
PID    : 81072
I/O    : uncollated
Case   : /home/tgd323/OpenFOAM/tgd323-v2406/run/H2/Phi=0_7_Xi=0_7_par_2
nProcs : 1
trapFpe: Floating point exception trapping enabled (FOAM_SIGFPE).
Case   : /home/tgd323/OpenFOAM/tgd323-v2406/run/H2/Phi=0_7_Xi=0_7_par_2
nProcs : 1
trapFpe: Floating point exception trapping enabled (FOAM_SIGFPE).
Case   : /home/tgd323/OpenFOAM/tgd323-v2406/run/H2/Phi=0_7_Xi=0_7_par_2
nProcs : 1
trapFpe: Floating point exception trapping enabled (FOAM_SIGFPE).
Case   : /home/tgd323/OpenFOAM/tgd323-v2406/run/H2/Phi=0_7_Xi=0_7_par_2
nProcs : 1
trapFpe: Floating point exception trapping enabled (FOAM_SIGFPE).
fileModificationChecking : Monitoring run-time modified files using timeStampMaster (fileModificationSkew 5, maxFileModificationPolls 20)
allowSystemOperations : Allowing user-supplied system call operations

// * * * * * * * * * * * * * * * * * * * * * * * * * * * * * * * * * * * * * //
Create time

fileModificationChecking : Monitoring run-time modified files using timeStampMaster (fileModificationSkew 5, maxFileModificationPolls 20)
allowSystemOperations : Allowing user-supplied system call operations

// * * * * * * * * * * * * * * * * * * * * * * * * * * * * * * * * * * * * * //
Create time

fileModificationChecking : Monitoring run-time modified files using timeStampMaster (fileModificationSkew 5, maxFileModificationPolls 20)
allowSystemOperations : Allowing user-supplied system call operations

// * * * * * * * * * * * * * * * * * * * * * * * * * * * * * * * * * * * * * //
Create time

fileModificationChecking : Monitoring run-time modified files using timeStampMaster (fileModificationSkew 5, maxFileModificationPolls 20)
allowSystemOperations : Allowing user-supplied system call operations

// * * * * * * * * * * * * * * * * * * * * * * * * * * * * * * * * * * * * * //
Create time

Create mesh for time = 0

Create mesh for time = 0

Create mesh for time = 0

Create mesh for time = 0

/*---------------------------------------------------------------------------*\
| =========                 |                                                 |
| \\      /  F ield         | OpenFOAM: The Open Source CFD Toolbox           |
|  \\    /   O peration     | Version:  2406                                  |
|   \\  /    A nd           | Website:  www.openfoam.com                      |
|    \\/     M anipulation  |                                                 |
\*---------------------------------------------------------------------------*/
Build  : _630d60de3b-20240620 OPENFOAM=2406 version=v2406
Arch   : "LSB;label=32;scalar=64"
Exec   : reactingCTDyMFoam
Date   : May 13 2025
Time   : 14:42:14
Host   : i9900
PID    : 81069
I/O    : uncollated
Case   : /home/tgd323/OpenFOAM/tgd323-v2406/run/H2/Phi=0_7_Xi=0_7_par_2
nProcs : 1
trapFpe: Floating point exception trapping enabled (FOAM_SIGFPE).
fileModificationChecking : Monitoring run-time modified files using timeStampMaster (fileModificationSkew 5, maxFileModificationPolls 20)
allowSystemOperations : Allowing user-supplied system call operations

// * * * * * * * * * * * * * * * * * * * * * * * * * * * * * * * * * * * * * //
Create time

Create mesh for time = 0

/*---------------------------------------------------------------------------*\
| =========                 |                                                 |
| \\      /  F ield         | OpenFOAM: The Open Source CFD Toolbox           |
|  \\    /   O peration     | Version:  2406                                  |
|   \\  /    A nd           | Website:  www.openfoam.com                      |
|    \\/     M anipulation  |                                                 |
\*---------------------------------------------------------------------------*/
Build  : _630d60de3b-20240620 OPENFOAM=2406 version=v2406
Arch   : "LSB;label=32;scalar=64"
Exec   : reactingCTDyMFoam
Date   : May 13 2025
Time   : 14:42:14
Host   : i9900
PID    : 81067
I/O    : uncollated
Case   : /home/tgd323/OpenFOAM/tgd323-v2406/run/H2/Phi=0_7_Xi=0_7_par_2
nProcs : 1
trapFpe: Floating point exception trapping enabled (FOAM_SIGFPE).
fileModificationChecking : Monitoring run-time modified files using timeStampMaster (fileModificationSkew 5, maxFileModificationPolls 20)
allowSystemOperations : Allowing user-supplied system call operations

// * * * * * * * * * * * * * * * * * * * * * * * * * * * * * * * * * * * * * //
Create time

Create mesh for time = 0


PIMPLE: Operating solver in PISO mode


PIMPLE: Operating solver in PISO mode

Reading thermophysical properties

Reading thermophysical properties

Selecting thermodynamics package 
{
    type            hePsiThermo;
    mixture         reactingMixture;
    transport       sutherland;
    thermo          janaf;
    energy          sensibleEnthalpy;
    equationOfState perfectGas;
    specie          specie;
}

Selecting thermodynamics package 
{
    type            hePsiThermo;
    mixture         reactingMixture;
    transport       sutherland;
    thermo          janaf;
    energy          sensibleEnthalpy;
    equationOfState perfectGas;
    specie          specie;
}

Selecting chemistryReader foamChemistryReader
Selecting chemistryReader foamChemistryReader

PIMPLE: Operating solver in PISO mode


PIMPLE: Operating solver in PISO mode

Reading thermophysical properties

Reading thermophysical properties

Selecting thermodynamics package 
{
    type            hePsiThermo;
    mixture         reactingMixture;
    transport       sutherland;
    thermo          janaf;
    energy          sensibleEnthalpy;
    equationOfState perfectGas;
    specie          specie;
}

Selecting thermodynamics package 
{
    type            hePsiThermo;
    mixture         reactingMixture;
    transport       sutherland;
    thermo          janaf;
    energy          sensibleEnthalpy;
    equationOfState perfectGas;
    specie          specie;
}

Selecting chemistryReader foamChemistryReader
Selecting chemistryReader foamChemistryReader

PIMPLE: Operating solver in PISO mode

Reading thermophysical properties

Selecting thermodynamics package 
{
    type            hePsiThermo;
    mixture         reactingMixture;
    transport       sutherland;
    thermo          janaf;
    energy          sensibleEnthalpy;
    equationOfState perfectGas;
    specie          specie;
}

Selecting chemistryReader foamChemistryReader

PIMPLE: Operating solver in PISO mode

Reading thermophysical properties

Selecting thermodynamics package 
{
    type            hePsiThermo;
    mixture         reactingMixture;
    transport       sutherland;
    thermo          janaf;
    energy          sensibleEnthalpy;
    equationOfState perfectGas;
    specie          specie;
}

Selecting chemistryReader foamChemistryReader
--> FOAM Warning : 
    From void Foam::multiComponentMixture<ThermoType>::correctMassFractions() [with ThermoType = Foam::sutherlandTransport<Foam::species::thermo<Foam::janafThermo<Foam::perfectGas<Foam::specie> >, Foam::sensibleEnthalpy> >]
    in file lnInclude/multiComponentMixture.C at line 78
    Sum of mass fractions is different from one for species 8(CH4 CH2 H2 O2 CO CO2 H2O N2)
    Max of mass fraction sum differs from 1 by 6.800005004e-11
Reading field U

Reading/calculating face flux field phi

Creating turbulence model.

Selecting turbulence model type laminar
Selecting laminar stress model Stokes
--> FOAM Warning : 
    From void Foam::multiComponentMixture<ThermoType>::correctMassFractions() [with ThermoType = Foam::sutherlandTransport<Foam::species::thermo<Foam::janafThermo<Foam::perfectGas<Foam::specie> >, Foam::sensibleEnthalpy> >]
    in file lnInclude/multiComponentMixture.C at line 78
    Sum of mass fractions is different from one for species 8(CH4 CH2 H2 O2 CO CO2 H2O N2)
    Max of mass fraction sum differs from 1 by 6.800005004e-11
Reading field U

Reading/calculating face flux field phi

--> FOAM Warning : 
    From void Foam::multiComponentMixture<ThermoType>::correctMassFractions() [with ThermoType = Foam::sutherlandTransport<Foam::species::thermo<Foam::janafThermo<Foam::perfectGas<Foam::specie> >, Foam::sensibleEnthalpy> >]
    in file lnInclude/multiComponentMixture.C at line 78
    Sum of mass fractions is different from one for species 8(CH4 CH2 H2 O2 CO CO2 H2O N2)
    Max of mass fraction sum differs from 1 by 6.800005004e-11
Reading field U

Creating turbulence model.

Selecting turbulence model type laminar
Selecting laminar stress model Stokes
Reading/calculating face flux field phi

--> FOAM Warning : 
    From void Foam::multiComponentMixture<ThermoType>::correctMassFractions() [with ThermoType = Foam::sutherlandTransport<Foam::species::thermo<Foam::janafThermo<Foam::perfectGas<Foam::specie> >, Foam::sensibleEnthalpy> >]
    in file lnInclude/multiComponentMixture.C at line 78
    Sum of mass fractions is different from one for species 8(CH4 CH2 H2 O2 CO CO2 H2O N2)
    Max of mass fraction sum differs from 1 by 6.800005004e-11
Reading field U

Reading/calculating face flux field phi

Creating turbulence model.

Selecting turbulence model type laminar
Selecting laminar stress model Stokes
Creating turbulence model.

Selecting turbulence model type laminar
Selecting laminar stress model Stokes
Creating reaction model

Selecting combustion model laminar
Selecting chemistry solver 
{
    solver          EulerImplicit;
    method          standard;
}

StandardChemistryModel: Number of species = 8 and reactions = 6
    using integrated reaction rate
Creating field dpdt

Creating field kinetic energy K

No MRF models present

Creating finite volume options from "constant/fvOptions"

Selecting finite volume options type scalarSemiImplicitSource
    Source: energySource
    - selecting cells using cellSet ignition
    - selected 18720 cell(s) with volume 1.872e-08
--> FOAM Warning : 
    From void Foam::multiComponentMixture<ThermoType>::correctMassFractions() [with ThermoType = Foam::sutherlandTransport<Foam::species::thermo<Foam::janafThermo<Foam::perfectGas<Foam::specie> >, Foam::sensibleEnthalpy> >]
    in file lnInclude/multiComponentMixture.C at line 78
    Sum of mass fractions is different from one for species 8(CH4 CH2 H2 O2 CO CO2 H2O N2)
    Max of mass fraction sum differs from 1 by 6.800005004e-11
Reading field U

Reading/calculating face flux field phi

Creating reaction model

Selecting combustion model laminar
Selecting chemistry solver 
{
    solver          EulerImplicit;
    method          standard;
}

StandardChemistryModel: Number of species = 8 and reactions = 6
    using integrated reaction rate
Creating field dpdt

Creating field kinetic energy K

No MRF models present

Creating finite volume options from "constant/fvOptions"

Selecting finite volume options type scalarSemiImplicitSource
    Source: energySource
    - selecting cells using cellSet ignition
Creating turbulence model.

Selecting turbulence model type laminar
Selecting laminar stress model Stokes
    - selected 18720 cell(s) with volume 1.872e-08
Creating reaction model

--> FOAM Warning : 
    From void Foam::multiComponentMixture<ThermoType>::correctMassFractions() [with ThermoType = Foam::sutherlandTransport<Foam::species::thermo<Foam::janafThermo<Foam::perfectGas<Foam::specie> >, Foam::sensibleEnthalpy> >]
    in file lnInclude/multiComponentMixture.C at line 78
    Sum of mass fractions is different from one for species 8(CH4 CH2 H2 O2 CO CO2 H2O N2)
    Max of mass fraction sum differs from 1 by 6.800005004e-11
Reading field U

Selecting combustion model laminar
Selecting chemistry solver 
{
    solver          EulerImplicit;
    method          standard;
}

Reading/calculating face flux field phi

StandardChemistryModel: Number of species = 8 and reactions = 6
    using integrated reaction rate
Creating field dpdt

Creating reaction model

Creating field kinetic energy K

Selecting combustion model laminar
Selecting chemistry solver 
{
    solver          EulerImplicit;
    method          standard;
}

No MRF models present

Creating finite volume options from "constant/fvOptions"

Selecting finite volume options type scalarSemiImplicitSource
    Source: energySource
    - selecting cells using cellSet ignition
    - selected 18720 cell(s) with volume 1.872e-08
StandardChemistryModel: Number of species = 8 and reactions = 6
    using integrated reaction rate
Creating field dpdt

Creating field kinetic energy K

No MRF models present

Creating finite volume options from "constant/fvOptions"

Selecting finite volume options type scalarSemiImplicitSource
    Source: energySource
    - selecting cells using cellSet ignition
Creating turbulence model.

Selecting turbulence model type laminar
Selecting laminar stress model Stokes
    - selected 18720 cell(s) with volume 1.872e-08
Creating reaction model

Selecting combustion model laminar
Selecting chemistry solver 
{
    solver          EulerImplicit;
    method          standard;
}

StandardChemistryModel: Number of species = 8 and reactions = 6
    using integrated reaction rate
Creating field dpdt

Creating field kinetic energy K

No MRF models present

Creating finite volume options from "constant/fvOptions"

Selecting finite volume options type scalarSemiImplicitSource
    Source: energySource
    - selecting cells using cellSet ignition
    - selected 18720 cell(s) with volume 1.872e-08
Creating reaction model

Selecting combustion model laminar
Selecting chemistry solver 
{
    solver          EulerImplicit;
    method          standard;
}

StandardChemistryModel: Number of species = 8 and reactions = 6
    using integrated reaction rate
Creating field dpdt

Creating field kinetic energy K

No MRF models present

Creating finite volume options from "constant/fvOptions"

Selecting finite volume options type scalarSemiImplicitSource
    Source: energySource
    - selecting cells using cellSet ignition
    - selected 18720 cell(s) with volume 1.872e-08
Reading/calculating face velocity rhoUf

In thermoCorrectByCantera.h
Reading/calculating face velocity rhoUf

In thermoCorrectByCantera.h
Reading/calculating face velocity rhoUf

In thermoCorrectByCantera.h
Reading/calculating face velocity rhoUf

In thermoCorrectByCantera.h
Reading/calculating face velocity rhoUf

Reading/calculating face velocity rhoUf

In thermoCorrectByCantera.h
In thermoCorrectByCantera.h
Before bnds
Before patch loop
Before bnds
Before patch loop
Ended thermoCorrect
Courant Number mean: 0 max: 0

Starting time loop

Ended thermoCorrect
Courant Number mean: 0 max: 0

Starting time loop

wallHeatFlux wallHeatFlux1:
    processing all (1) wall patches

Before bnds
Before patch loop
wallHeatFlux wallHeatFlux1:
    processing all (1) wall patches

Courant Number mean: 0 max: 0
deltaT = 1.2e-05
Ended thermoCorrect
Courant Number mean: 0 max: 0

Starting time loop

Courant Number mean: 0 max: 0
deltaT = 1.2e-05
---NormalisedGradT: min = min(normalisedGradT) [0 0 0 0 0 0 0] 0   max = max(normalisedGradT) [0 0 0 0 0 0 0] 1
Time = 1.2e-05

Before mesh update
Time before mesh update
ExecutionTime = 1.52 s  ClockTime = 2 s

Time after mesh update
ExecutionTime = 1.52 s  ClockTime = 2 s

After mesh update: 0
diagonal:  Solving for rho, Initial residual = 0, Final residual = 0, No Iterations 0
PIMPLE: iteration 1
wallHeatFlux wallHeatFlux1:
    processing all (1) wall patches

---NormalisedGradT: min = min(normalisedGradT) [0 0 0 0 0 0 0] 0   max = max(normalisedGradT) [0 0 0 0 0 0 0] 1
Time = 1.2e-05

Before bnds
Before patch loop
Before mesh update
Time before mesh update
ExecutionTime = 1.54 s  ClockTime = 2 s

Time after mesh update
ExecutionTime = 1.54 s  ClockTime = 2 s

After mesh update: 0
Ended thermoCorrect
diagonal:  Solving for rho, Initial residual = 0, Final residual = 0, No Iterations 0
PIMPLE: iteration 1
Courant Number mean: 0 max: 0
deltaT = 1.2e-05
Courant Number mean: 0 max: 0

Starting time loop

---NormalisedGradT: min = min(normalisedGradT) [0 0 0 0 0 0 0] 0   max = max(normalisedGradT) [0 0 0 0 0 0 0] 1
Time = 1.2e-05

Before mesh update
Time before mesh update
Before bnds
Before patch loop
ExecutionTime = 1.55 s  ClockTime = 2 s

Time after mesh update
ExecutionTime = 1.55 s  ClockTime = 2 s

After mesh update: 0
Ended thermoCorrect
diagonal:  Solving for rho, Initial residual = 0, Final residual = 0, No Iterations 0
PIMPLE: iteration 1
wallHeatFlux wallHeatFlux1:
    processing all (1) wall patches

Courant Number mean: 0 max: 0

Starting time loop

Courant Number mean: 0 max: 0
deltaT = 1.2e-05
wallHeatFlux wallHeatFlux1:
    processing all (1) wall patches

Courant Number mean: 0 max: 0
deltaT = 1.2e-05
---NormalisedGradT: min = min(normalisedGradT) [0 0 0 0 0 0 0] 0   max = max(normalisedGradT) [0 0 0 0 0 0 0] 1
Time = 1.2e-05

Before bnds
Before patch loop
Before mesh update
Time before mesh update
ExecutionTime = 1.73 s  ClockTime = 2 s

Time after mesh update
ExecutionTime = 1.73 s  ClockTime = 2 s

After mesh update: 0
Ended thermoCorrect
diagonal:  Solving for rho, Initial residual = 0, Final residual = 0, No Iterations 0
PIMPLE: iteration 1
---NormalisedGradT: min = min(normalisedGradT) [0 0 0 0 0 0 0] 0   max = max(normalisedGradT) [0 0 0 0 0 0 0] 1
Time = 1.2e-05

Courant Number mean: 0 max: 0

Starting time loop

Before mesh update
Time before mesh update
ExecutionTime = 1.78 s  ClockTime = 2 s

Time after mesh update
ExecutionTime = 1.78 s  ClockTime = 2 s

After mesh update: 0
diagonal:  Solving for rho, Initial residual = 0, Final residual = 0, No Iterations 0
PIMPLE: iteration 1
wallHeatFlux wallHeatFlux1:
    processing all (1) wall patches

Courant Number mean: 0 max: 0
deltaT = 1.2e-05
---NormalisedGradT: min = min(normalisedGradT) [0 0 0 0 0 0 0] 0   max = max(normalisedGradT) [0 0 0 0 0 0 0] 1
Time = 1.2e-05

Before mesh update
Time before mesh update
ExecutionTime = 1.94 s  ClockTime = 2 s

Time after mesh update
ExecutionTime = 1.94 s  ClockTime = 2 s

After mesh update: 0
diagonal:  Solving for rho, Initial residual = 0, Final residual = 0, No Iterations 0
PIMPLE: iteration 1
DILUPBiCGStab:  Solving for Ux, Initial residual = 0.9999998324, Final residual = 0.0008350383911, No Iterations 1
DILUPBiCGStab:  Solving for Ux, Initial residual = 0.9999998324, Final residual = 0.0008350383911, No Iterations 1
DILUPBiCGStab:  Solving for Uy, Initial residual = 0.9999998349, Final residual = 0.0008658543925, No Iterations 1
DILUPBiCGStab:  Solving for Ux, Initial residual = 0.9999998324, Final residual = 0.0008350383911, No Iterations 1
DILUPBiCGStab:  Solving for Uy, Initial residual = 0.9999998349, Final residual = 0.0008658543925, No Iterations 1
DILUPBiCGStab:  Solving for Uz, Initial residual = 0.9999998166, Final residual = 0.0009586930753, No Iterations 1
DILUPBiCGStab:  Solving for Uy, Initial residual = 0.9999998349, Final residual = 0.0008658543925, No Iterations 1
DILUPBiCGStab:  Solving for Ux, Initial residual = 0.9999998324, Final residual = 0.0008350383911, No Iterations 1
DILUPBiCGStab:  Solving for Uz, Initial residual = 0.9999998166, Final residual = 0.0009586930753, No Iterations 1
DILUPBiCGStab:  Solving for Ux, Initial residual = 0.9999998324, Final residual = 0.0008350383911, No Iterations 1
DILUPBiCGStab:  Solving for Uz, Initial residual = 0.9999998166, Final residual = 0.0009586930753, No Iterations 1
DILUPBiCGStab:  Solving for Uy, Initial residual = 0.9999998349, Final residual = 0.0008658543925, No Iterations 1
DILUPBiCGStab:  Solving for Uy, Initial residual = 0.9999998349, Final residual = 0.0008658543925, No Iterations 1
DILUPBiCGStab:  Solving for Ux, Initial residual = 0.9999998324, Final residual = 0.0008350383911, No Iterations 1
DILUPBiCGStab:  Solving for Uz, Initial residual = 0.9999998166, Final residual = 0.0009586930753, No Iterations 1
DILUPBiCGStab:  Solving for Uz, Initial residual = 0.9999998166, Final residual = 0.0009586930753, No Iterations 1
DILUPBiCGStab:  Solving for Uy, Initial residual = 0.9999998349, Final residual = 0.0008658543925, No Iterations 1
DILUPBiCGStab:  Solving for Uz, Initial residual = 0.9999998166, Final residual = 0.0009586930753, No Iterations 1
Before reaction->correct():
Time before reaction
ExecutionTime = 4.49 s  ClockTime = 5 s

Before reaction->correct():
Time before reaction
ExecutionTime = 4.58 s  ClockTime = 5 s

Before reaction->correct():
Time before reaction
ExecutionTime = 4.63 s  ClockTime = 5 s

Before reaction->correct():
Time before reaction
ExecutionTime = 4.82 s  ClockTime = 5 s

Before reaction->correct():
Time before reaction
ExecutionTime = 4.84 s  ClockTime = 5 s

Before reaction->correct():
Time before reaction
ExecutionTime = 4.92 s  ClockTime = 5 s

Time after reaction
ExecutionTime = 5.2 s  ClockTime = 6 s

Done reaction->correct():
Time after reaction
ExecutionTime = 5.28 s  ClockTime = 6 s

Done reaction->correct():
Time after reaction
ExecutionTime = 5.33 s  ClockTime = 6 s

Done reaction->correct():
DILUPBiCGStab:  Solving for CH4, Initial residual = 0.999995405, Final residual = 0.0007414005863, No Iterations 1
Time after reaction
ExecutionTime = 5.51 s  ClockTime = 6 s

Done reaction->correct():
Time after reaction
ExecutionTime = 5.54 s  ClockTime = 6 s

Done reaction->correct():
Time after reaction
ExecutionTime = 5.62 s  ClockTime = 6 s

Done reaction->correct():
DILUPBiCGStab:  Solving for CH4, Initial residual = 0.999995405, Final residual = 0.0007414005863, No Iterations 1
DILUPBiCGStab:  Solving for CH4, Initial residual = 0.999995405, Final residual = 0.0007414005863, No Iterations 1
DILUPBiCGStab:  Solving for CH2, Initial residual = 0.9999997197, Final residual = 0.0002353138589, No Iterations 1
DILUPBiCGStab:  Solving for CH4, Initial residual = 0.999995405, Final residual = 0.0007414005863, No Iterations 1
DILUPBiCGStab:  Solving for CH4, Initial residual = 0.999995405, Final residual = 0.0007414005863, No Iterations 1
DILUPBiCGStab:  Solving for CH4, Initial residual = 0.999995405, Final residual = 0.0007414005863, No Iterations 1
DILUPBiCGStab:  Solving for CH2, Initial residual = 0.9999997197, Final residual = 0.0002353138589, No Iterations 1
DILUPBiCGStab:  Solving for CH2, Initial residual = 0.9999997197, Final residual = 0.0002353138589, No Iterations 1
DILUPBiCGStab:  Solving for H2, Initial residual = 0.999994287, Final residual = 0.005967371038, No Iterations 1
DILUPBiCGStab:  Solving for CH2, Initial residual = 0.9999997197, Final residual = 0.0002353138589, No Iterations 1
DILUPBiCGStab:  Solving for CH2, Initial residual = 0.9999997197, Final residual = 0.0002353138589, No Iterations 1
DILUPBiCGStab:  Solving for CH2, Initial residual = 0.9999997197, Final residual = 0.0002353138589, No Iterations 1
DILUPBiCGStab:  Solving for H2, Initial residual = 0.999994287, Final residual = 0.005967371038, No Iterations 1
DILUPBiCGStab:  Solving for H2, Initial residual = 0.999994287, Final residual = 0.005967371038, No Iterations 1
DILUPBiCGStab:  Solving for O2, Initial residual = 0.9999998725, Final residual = 0.0006583037588, No Iterations 1
DILUPBiCGStab:  Solving for H2, Initial residual = 0.999994287, Final residual = 0.005967371038, No Iterations 1
DILUPBiCGStab:  Solving for H2, Initial residual = 0.999994287, Final residual = 0.005967371038, No Iterations 1
DILUPBiCGStab:  Solving for O2, Initial residual = 0.9999998725, Final residual = 0.0006583037588, No Iterations 1
DILUPBiCGStab:  Solving for H2, Initial residual = 0.999994287, Final residual = 0.005967371038, No Iterations 1
DILUPBiCGStab:  Solving for O2, Initial residual = 0.9999998725, Final residual = 0.0006583037588, No Iterations 1
DILUPBiCGStab:  Solving for CO, Initial residual = 0.001038739166, Final residual = 2.028927013e-07, No Iterations 1
DILUPBiCGStab:  Solving for O2, Initial residual = 0.9999998725, Final residual = 0.0006583037588, No Iterations 1
DILUPBiCGStab:  Solving for O2, Initial residual = 0.9999998725, Final residual = 0.0006583037588, No Iterations 1
DILUPBiCGStab:  Solving for CO, Initial residual = 0.001038739166, Final residual = 2.028927013e-07, No Iterations 1
DILUPBiCGStab:  Solving for O2, Initial residual = 0.9999998725, Final residual = 0.0006583037588, No Iterations 1
DILUPBiCGStab:  Solving for CO, Initial residual = 0.001038739166, Final residual = 2.028927013e-07, No Iterations 1
DILUPBiCGStab:  Solving for CO2, Initial residual = 0, Final residual = 0, No Iterations 0
DILUPBiCGStab:  Solving for CO, Initial residual = 0.001038739166, Final residual = 2.028927013e-07, No Iterations 1
DILUPBiCGStab:  Solving for CO, Initial residual = 0.001038739166, Final residual = 2.028927013e-07, No Iterations 1
DILUPBiCGStab:  Solving for CO2, Initial residual = 0, Final residual = 0, No Iterations 0
DILUPBiCGStab:  Solving for CO, Initial residual = 0.001038739166, Final residual = 2.028927013e-07, No Iterations 1
DILUPBiCGStab:  Solving for CO2, Initial residual = 0, Final residual = 0, No Iterations 0
DILUPBiCGStab:  Solving for H2O, Initial residual = 0.9999786854, Final residual = 0.0002307306115, No Iterations 1
DILUPBiCGStab:  Solving for CO2, Initial residual = 0, Final residual = 0, No Iterations 0
DILUPBiCGStab:  Solving for CO2, Initial residual = 0, Final residual = 0, No Iterations 0
DILUPBiCGStab:  Solving for H2O, Initial residual = 0.9999786854, Final residual = 0.0002307306115, No Iterations 1
DILUPBiCGStab:  Solving for CO2, Initial residual = 0, Final residual = 0, No Iterations 0
DILUPBiCGStab:  Solving for H2O, Initial residual = 0.9999786854, Final residual = 0.0002307306115, No Iterations 1
DILUPBiCGStab:  Solving for H2O, Initial residual = 0.9999786854, Final residual = 0.0002307306115, No Iterations 1
DILUPBiCGStab:  Solving for H2O, Initial residual = 0.9999786854, Final residual = 0.0002307306115, No Iterations 1
 In EEqn.H: min/max(T) = 300, 300.0001251
DILUPBiCGStab:  Solving for H2O, Initial residual = 0.9999786854, Final residual = 0.0002307306115, No Iterations 1
   Min Q:-2.343435544
   Max Q:0
  Before: min/max(he) = 1868.605409, 2105.244346
 In EEqn.H: min/max(T) = 300, 300.0001251
   Min Q:-2.343435544
   Max Q:0
  Before: min/max(he) = 1868.605409, 2105.244346
 In EEqn.H: min/max(T) = 300, 300.0001251
   Min Q:-2.343435544
   Max Q:0
  Before: min/max(he) = 1868.605409, 2105.244346
 In EEqn.H: min/max(T) = 300, 300.0001251
   Min Q:-2.343435544
 In EEqn.H: min/max(T) = 300, 300.0001251
   Max Q:0
  Before: min/max(he) = 1868.605409, 2105.244346
   Min Q:-2.343435544
 In EEqn.H: min/max(T) = 300, 300.0001251
   Max Q:0
  Before: min/max(he) = 1868.605409, 2105.244346
   Min Q:-2.343435544
   Max Q:0
  Before: min/max(he) = 1868.605409, 2105.244346
DILUPBiCGStab:  Solving for h, Initial residual = 1, Final residual = 0.001418150429, No Iterations 1
After: min/max(he) = 2096.861413, 8988.497589
In thermoCorrectByCantera.h
DILUPBiCGStab:  Solving for h, Initial residual = 1, Final residual = 0.001418150429, No Iterations 1
After: min/max(he) = 2096.861413, 8988.497589
In thermoCorrectByCantera.h
DILUPBiCGStab:  Solving for h, Initial residual = 1, Final residual = 0.001418150429, No Iterations 1
After: min/max(he) = 2096.861413, 8988.497589
In thermoCorrectByCantera.h
Before bnds
Before patch loop
Ended thermoCorrect
min/max(T) = 299.9927264, 306.045101
Min Q:-2.343435544
Max Q:0
DILUPBiCGStab:  Solving for h, Initial residual = 1, Final residual = 0.001418150429, No Iterations 1
After: min/max(he) = 2096.861413, 8988.497589
In thermoCorrectByCantera.h
DILUPBiCGStab:  Solving for h, Initial residual = 1, Final residual = 0.001418150429, No Iterations 1
After: min/max(he) = 2096.861413, 8988.497589
In thermoCorrectByCantera.h
DILUPBiCGStab:  Solving for h, Initial residual = 1, Final residual = 0.001418150429, No Iterations 1
After: min/max(he) = 2096.861413, 8988.497589
In thermoCorrectByCantera.h
Before bnds
Before patch loop
Ended thermoCorrect
min/max(T) = 299.9927264, 306.045101
Min Q:-2.343435544
Max Q:0
Before bnds
Before patch loop
Ended thermoCorrect
min/max(T) = 299.9927264, 306.045101
Min Q:-2.343435544
Max Q:0
Before bnds
Before patch loop
Ended thermoCorrect
min/max(T) = 299.9927264, 306.045101
Min Q:-2.343435544
Max Q:0
Before bnds
Before patch loop
Ended thermoCorrect
min/max(T) = 299.9927264, 306.045101
Min Q:-2.343435544
Max Q:0
Before bnds
Before patch loop
Ended thermoCorrect
min/max(T) = 299.9927264, 306.045101
Min Q:-2.343435544
Max Q:0
DICPCG:  Solving for p, Initial residual = 0.9999999992, Final residual = 0.008871118435, No Iterations 83
diagonal:  Solving for rho, Initial residual = 0, Final residual = 0, No Iterations 0
time step continuity errors : sum local = 1.398520337e-05, global = -1.3305305e-05, cumulative = -1.3305305e-05
DICPCG:  Solving for p, Initial residual = 0.9999999992, Final residual = 0.008871118435, No Iterations 83
diagonal:  Solving for rho, Initial residual = 0, Final residual = 0, No Iterations 0
time step continuity errors : sum local = 1.398520337e-05, global = -1.3305305e-05, cumulative = -1.3305305e-05
DICPCG:  Solving for p, Initial residual = 0.9999999992, Final residual = 0.008871118435, No Iterations 83
diagonal:  Solving for rho, Initial residual = 0, Final residual = 0, No Iterations 0
time step continuity errors : sum local = 1.398520337e-05, global = -1.3305305e-05, cumulative = -1.3305305e-05
DICPCG:  Solving for p, Initial residual = 0.9999999992, Final residual = 0.008871118435, No Iterations 83
diagonal:  Solving for rho, Initial residual = 0, Final residual = 0, No Iterations 0
DICPCG:  Solving for p, Initial residual = 0.9999999992, Final residual = 0.008871118435, No Iterations 83
time step continuity errors : sum local = 1.398520337e-05, global = -1.3305305e-05, cumulative = -1.3305305e-05
DICPCG:  Solving for p, Initial residual = 0.9999999992, Final residual = 0.008871118435, No Iterations 83
diagonal:  Solving for rho, Initial residual = 0, Final residual = 0, No Iterations 0
diagonal:  Solving for rho, Initial residual = 0, Final residual = 0, No Iterations 0
time step continuity errors : sum local = 1.398520337e-05, global = -1.3305305e-05, cumulative = -1.3305305e-05
time step continuity errors : sum local = 1.398520337e-05, global = -1.3305305e-05, cumulative = -1.3305305e-05
DICPCG:  Solving for p, Initial residual = 0.05287639453, Final residual = 9.828543097e-06, No Iterations 108
diagonal:  Solving for rho, Initial residual = 0, Final residual = 0, No Iterations 0
time step continuity errors : sum local = 1.330790368e-05, global = -1.330790368e-05, cumulative = -2.661320868e-05
ExecutionTime = 22.24 s  ClockTime = 23 s

DICPCG:  Solving for p, Initial residual = 0.05287639453, Final residual = 9.828543097e-06, No Iterations 108
diagonal:  Solving for rho, Initial residual = 0, Final residual = 0, No Iterations 0
time step continuity errors : sum local = 1.330790368e-05, global = -1.330790368e-05, cumulative = -2.661320868e-05
    min/max/integ(Walls) = -4008.889014, 4.928458694, -0.01247125738
Courant Number mean: 0.01611166877 max: 0.09300231925
deltaT = 1.44e-05
---NormalisedGradT: min = min(normalisedGradT) [0 0 0 0 0 0 0] 0   max = max(normalisedGradT) [0 0 0 0 0 0 0] 1
Time = 2.64e-05

Before mesh update
Time before mesh update
ExecutionTime = 22.49 s  ClockTime = 23 s

Time after mesh update
ExecutionTime = 22.49 s  ClockTime = 23 s

After mesh update: 0
diagonal:  Solving for rho, Initial residual = 0, Final residual = 0, No Iterations 0
PIMPLE: iteration 1
ExecutionTime = 22.59 s  ClockTime = 23 s

DICPCG:  Solving for p, Initial residual = 0.05287639453, Final residual = 9.828543097e-06, No Iterations 108
diagonal:  Solving for rho, Initial residual = 0, Final residual = 0, No Iterations 0
time step continuity errors : sum local = 1.330790368e-05, global = -1.330790368e-05, cumulative = -2.661320868e-05
    min/max/integ(Walls) = -4008.889014, 4.928458694, -0.01247125738
DICPCG:  Solving for p, Initial residual = 0.05287639453, Final residual = 9.828543097e-06, No Iterations 108
Courant Number mean: 0.01611166877 max: 0.09300231925
deltaT = 1.44e-05
diagonal:  Solving for rho, Initial residual = 0, Final residual = 0, No Iterations 0
time step continuity errors : sum local = 1.330790368e-05, global = -1.330790368e-05, cumulative = -2.661320868e-05
DICPCG:  Solving for p, Initial residual = 0.05287639453, Final residual = 9.828543097e-06, No Iterations 108
---NormalisedGradT: min = min(normalisedGradT) [0 0 0 0 0 0 0] 0   max = max(normalisedGradT) [0 0 0 0 0 0 0] 1
Time = 2.64e-05

Before mesh update
Time before mesh update
ExecutionTime = 22.84 s  ClockTime = 23 s

Time after mesh update
ExecutionTime = 22.84 s  ClockTime = 23 s

After mesh update: 0
DICPCG:  Solving for p, Initial residual = 0.05287639453, Final residual = 9.828543097e-06, No Iterations 108
diagonal:  Solving for rho, Initial residual = 0, Final residual = 0, No Iterations 0
PIMPLE: iteration 1
diagonal:  Solving for rho, Initial residual = 0, Final residual = 0, No Iterations 0
diagonal:  Solving for rho, Initial residual = 0, Final residual = 0, No Iterations 0
ExecutionTime = 22.88 s  ClockTime = 23 s

time step continuity errors : sum local = 1.330790368e-05, global = -1.330790368e-05, cumulative = -2.661320868e-05
time step continuity errors : sum local = 1.330790368e-05, global = -1.330790368e-05, cumulative = -2.661320868e-05
    min/max/integ(Walls) = -4008.889014, 4.928458694, -0.01247125738
ExecutionTime = 23.08 s  ClockTime = 23 s

Courant Number mean: 0.01611166877 max: 0.09300231925
deltaT = 1.44e-05
ExecutionTime = 23.17 s  ClockTime = 24 s

---NormalisedGradT: min = min(normalisedGradT) [0 0 0 0 0 0 0] 0   max = max(normalisedGradT) [0 0 0 0 0 0 0] 1
Time = 2.64e-05

ExecutionTime = 23.18 s  ClockTime = 24 s

Before mesh update
Time before mesh update
ExecutionTime = 23.12 s  ClockTime = 24 s

Time after mesh update
ExecutionTime = 23.12 s  ClockTime = 24 s

After mesh update: 0
    min/max/integ(Walls) = -4008.889014, 4.928458694, -0.01247125738
diagonal:  Solving for rho, Initial residual = 0, Final residual = 0, No Iterations 0
PIMPLE: iteration 1
Courant Number mean: 0.01611166877 max: 0.09300231925
deltaT = 1.44e-05
    min/max/integ(Walls) = -4008.889014, 4.928458694, -0.01247125738
---NormalisedGradT: min = min(normalisedGradT) [0 0 0 0 0 0 0] 0   max = max(normalisedGradT) [0 0 0 0 0 0 0] 1
Time = 2.64e-05

    min/max/integ(Walls) = -4008.889014, 4.928458694, -0.01247125738
Before mesh update
Time before mesh update
ExecutionTime = 23.31 s  ClockTime = 24 s

Time after mesh update
ExecutionTime = 23.31 s  ClockTime = 24 s

After mesh update: 0
Courant Number mean: 0.01611166877 max: 0.09300231925
deltaT = 1.44e-05
Courant Number mean: 0.01611166877 max: 0.09300231925
deltaT = 1.44e-05
diagonal:  Solving for rho, Initial residual = 0, Final residual = 0, No Iterations 0
PIMPLE: iteration 1
---NormalisedGradT: min = min(normalisedGradT) [0 0 0 0 0 0 0] 0   max = max(normalisedGradT) [0 0 0 0 0 0 0] 1
Time = 2.64e-05

Before mesh update
Time before mesh update
ExecutionTime = 23.43 s  ClockTime = 24 s

Time after mesh update
ExecutionTime = 23.43 s  ClockTime = 24 s

After mesh update: 0
---NormalisedGradT: min = min(normalisedGradT) [0 0 0 0 0 0 0] 0   max = max(normalisedGradT) [0 0 0 0 0 0 0] 1
Time = 2.64e-05

Before mesh update
Time before mesh update
ExecutionTime = 23.44 s  ClockTime = 24 s

Time after mesh update
ExecutionTime = 23.44 s  ClockTime = 24 s

After mesh update: 0
DILUPBiCGStab:  Solving for Ux, Initial residual = 0.4904593626, Final residual = 0.0001447056913, No Iterations 1
diagonal:  Solving for rho, Initial residual = 0, Final residual = 0, No Iterations 0
PIMPLE: iteration 1
diagonal:  Solving for rho, Initial residual = 0, Final residual = 0, No Iterations 0
PIMPLE: iteration 1
DILUPBiCGStab:  Solving for Uy, Initial residual = 0.3773020293, Final residual = 0.0001914791694, No Iterations 1
DILUPBiCGStab:  Solving for Uz, Initial residual = 0.3774040637, Final residual = 0.0002894178971, No Iterations 1
DILUPBiCGStab:  Solving for Ux, Initial residual = 0.4904593626, Final residual = 0.0001447056913, No Iterations 1
DILUPBiCGStab:  Solving for Uy, Initial residual = 0.3773020293, Final residual = 0.0001914791694, No Iterations 1
DILUPBiCGStab:  Solving for Uz, Initial residual = 0.3774040637, Final residual = 0.0002894178971, No Iterations 1
DILUPBiCGStab:  Solving for Ux, Initial residual = 0.4904593626, Final residual = 0.0001447056913, No Iterations 1
DILUPBiCGStab:  Solving for Uy, Initial residual = 0.3773020293, Final residual = 0.0001914791694, No Iterations 1
DILUPBiCGStab:  Solving for Ux, Initial residual = 0.4904593626, Final residual = 0.0001447056913, No Iterations 1
DILUPBiCGStab:  Solving for Ux, Initial residual = 0.4904593626, Final residual = 0.0001447056913, No Iterations 1
DILUPBiCGStab:  Solving for Ux, Initial residual = 0.4904593626, Final residual = 0.0001447056913, No Iterations 1
DILUPBiCGStab:  Solving for Uz, Initial residual = 0.3774040637, Final residual = 0.0002894178971, No Iterations 1
DILUPBiCGStab:  Solving for Uy, Initial residual = 0.3773020293, Final residual = 0.0001914791694, No Iterations 1
DILUPBiCGStab:  Solving for Uy, Initial residual = 0.3773020293, Final residual = 0.0001914791694, No Iterations 1
DILUPBiCGStab:  Solving for Uy, Initial residual = 0.3773020293, Final residual = 0.0001914791694, No Iterations 1
DILUPBiCGStab:  Solving for Uz, Initial residual = 0.3774040637, Final residual = 0.0002894178971, No Iterations 1
DILUPBiCGStab:  Solving for Uz, Initial residual = 0.3774040637, Final residual = 0.0002894178971, No Iterations 1
DILUPBiCGStab:  Solving for Uz, Initial residual = 0.3774040637, Final residual = 0.0002894178971, No Iterations 1
Before reaction->correct():
Time before reaction
ExecutionTime = 25.39 s  ClockTime = 26 s

Before reaction->correct():
Time before reaction
ExecutionTime = 25.73 s  ClockTime = 26 s

Before reaction->correct():
Time before reaction
ExecutionTime = 25.94 s  ClockTime = 26 s

Time after reaction
ExecutionTime = 26.09 s  ClockTime = 26 s

Done reaction->correct():
Before reaction->correct():
Time before reaction
ExecutionTime = 26.1 s  ClockTime = 26 s

Before reaction->correct():
Time before reaction
ExecutionTime = 26.15 s  ClockTime = 26 s

Before reaction->correct():
Time before reaction
ExecutionTime = 26.15 s  ClockTime = 26 s

DILUPBiCGStab:  Solving for CH4, Initial residual = 0.06772341171, Final residual = 8.898643118e-05, No Iterations 1
Time after reaction
ExecutionTime = 26.44 s  ClockTime = 27 s

Done reaction->correct():
DILUPBiCGStab:  Solving for CH2, Initial residual = 0.9998087104, Final residual = 0.001058879603, No Iterations 1
Time after reaction
ExecutionTime = 26.63 s  ClockTime = 27 s

Done reaction->correct():
DILUPBiCGStab:  Solving for CH4, Initial residual = 0.06772341171, Final residual = 8.898643118e-05, No Iterations 1
Time after reaction
ExecutionTime = 26.81 s  ClockTime = 27 s

Done reaction->correct():
Time after reaction
ExecutionTime = 26.86 s  ClockTime = 27 s

Done reaction->correct():
Time after reaction
ExecutionTime = 26.87 s  ClockTime = 27 s

Done reaction->correct():
DILUPBiCGStab:  Solving for H2, Initial residual = 0.1552047909, Final residual = 0.001110837066, No Iterations 1
DILUPBiCGStab:  Solving for CH4, Initial residual = 0.06772341171, Final residual = 8.898643118e-05, No Iterations 1
DILUPBiCGStab:  Solving for CH2, Initial residual = 0.9998087104, Final residual = 0.001058879603, No Iterations 1
DILUPBiCGStab:  Solving for CH4, Initial residual = 0.06772341171, Final residual = 8.898643118e-05, No Iterations 1
DILUPBiCGStab:  Solving for CH4, Initial residual = 0.06772341171, Final residual = 8.898643118e-05, No Iterations 1
DILUPBiCGStab:  Solving for CH4, Initial residual = 0.06772341171, Final residual = 8.898643118e-05, No Iterations 1
DILUPBiCGStab:  Solving for O2, Initial residual = 0.06497910376, Final residual = 7.832776295e-05, No Iterations 1
DILUPBiCGStab:  Solving for CH2, Initial residual = 0.9998087104, Final residual = 0.001058879603, No Iterations 1
DILUPBiCGStab:  Solving for H2, Initial residual = 0.1552047909, Final residual = 0.001110837066, No Iterations 1
DILUPBiCGStab:  Solving for CH2, Initial residual = 0.9998087104, Final residual = 0.001058879603, No Iterations 1
DILUPBiCGStab:  Solving for CH2, Initial residual = 0.9998087104, Final residual = 0.001058879603, No Iterations 1
DILUPBiCGStab:  Solving for CH2, Initial residual = 0.9998087104, Final residual = 0.001058879603, No Iterations 1
DILUPBiCGStab:  Solving for CO, Initial residual = 0.001105191208, Final residual = 1.259487596e-06, No Iterations 1
DILUPBiCGStab:  Solving for H2, Initial residual = 0.1552047909, Final residual = 0.001110837066, No Iterations 1
DILUPBiCGStab:  Solving for O2, Initial residual = 0.06497910376, Final residual = 7.832776295e-05, No Iterations 1
DILUPBiCGStab:  Solving for CO2, Initial residual = 1.79276894e-27, Final residual = 1.79276894e-27, No Iterations 0
DILUPBiCGStab:  Solving for H2, Initial residual = 0.1552047909, Final residual = 0.001110837066, No Iterations 1
DILUPBiCGStab:  Solving for H2, Initial residual = 0.1552047909, Final residual = 0.001110837066, No Iterations 1
DILUPBiCGStab:  Solving for H2, Initial residual = 0.1552047909, Final residual = 0.001110837066, No Iterations 1
DILUPBiCGStab:  Solving for O2, Initial residual = 0.06497910376, Final residual = 7.832776295e-05, No Iterations 1
DILUPBiCGStab:  Solving for CO, Initial residual = 0.001105191208, Final residual = 1.259487596e-06, No Iterations 1
DILUPBiCGStab:  Solving for H2O, Initial residual = 0.9997936023, Final residual = 0.001091855918, No Iterations 1
DILUPBiCGStab:  Solving for O2, Initial residual = 0.06497910376, Final residual = 7.832776295e-05, No Iterations 1
DILUPBiCGStab:  Solving for O2, Initial residual = 0.06497910376, Final residual = 7.832776295e-05, No Iterations 1
DILUPBiCGStab:  Solving for O2, Initial residual = 0.06497910376, Final residual = 7.832776295e-05, No Iterations 1
 In EEqn.H: min/max(T) = 299.9927264, 306.045101
DILUPBiCGStab:  Solving for CO, Initial residual = 0.001105191208, Final residual = 1.259487596e-06, No Iterations 1
   Min Q:-4.374912698
DILUPBiCGStab:  Solving for CO2, Initial residual = 1.79276894e-27, Final residual = 1.79276894e-27, No Iterations 0
   Max Q:0
  Before: min/max(he) = 2096.861413, 8988.497589
DILUPBiCGStab:  Solving for CO, Initial residual = 0.001105191208, Final residual = 1.259487596e-06, No Iterations 1
DILUPBiCGStab:  Solving for CO, Initial residual = 0.001105191208, Final residual = 1.259487596e-06, No Iterations 1
DILUPBiCGStab:  Solving for CO, Initial residual = 0.001105191208, Final residual = 1.259487596e-06, No Iterations 1
DILUPBiCGStab:  Solving for CO2, Initial residual = 1.79276894e-27, Final residual = 1.79276894e-27, No Iterations 0
DILUPBiCGStab:  Solving for H2O, Initial residual = 0.9997936023, Final residual = 0.001091855918, No Iterations 1
DILUPBiCGStab:  Solving for CO2, Initial residual = 1.79276894e-27, Final residual = 1.79276894e-27, No Iterations 0
DILUPBiCGStab:  Solving for CO2, Initial residual = 1.79276894e-27, Final residual = 1.79276894e-27, No Iterations 0
DILUPBiCGStab:  Solving for CO2, Initial residual = 1.79276894e-27, Final residual = 1.79276894e-27, No Iterations 0
DILUPBiCGStab:  Solving for h, Initial residual = 0.2883243823, Final residual = 0.0008585664076, No Iterations 1
After: min/max(he) = 2105.211423, 17565.20386
In thermoCorrectByCantera.h
 In EEqn.H: min/max(T) = 299.9927264, 306.045101
   Min Q:-4.374912698
DILUPBiCGStab:  Solving for H2O, Initial residual = 0.9997936023, Final residual = 0.001091855918, No Iterations 1
   Max Q:0
  Before: min/max(he) = 2096.861413, 8988.497589
DILUPBiCGStab:  Solving for H2O, Initial residual = 0.9997936023, Final residual = 0.001091855918, No Iterations 1
DILUPBiCGStab:  Solving for H2O, Initial residual = 0.9997936023, Final residual = 0.001091855918, No Iterations 1
DILUPBiCGStab:  Solving for H2O, Initial residual = 0.9997936023, Final residual = 0.001091855918, No Iterations 1
 In EEqn.H: min/max(T) = 299.9927264, 306.045101
   Min Q:-4.374912698
   Max Q:0
  Before: min/max(he) = 2096.861413, 8988.497589
Before bnds
Before patch loop
Ended thermoCorrect
min/max(T) = 300, 313.5686184
Min Q:-4.374912698
Max Q:0
 In EEqn.H: min/max(T) = 299.9927264, 306.045101
 In EEqn.H: min/max(T) = 299.9927264, 306.045101
 In EEqn.H: min/max(T) = 299.9927264, 306.045101
   Min Q:-4.374912698
   Min Q:-4.374912698
   Min Q:-4.374912698
   Max Q:0
   Max Q:0
   Max Q:0
  Before: min/max(he) = 2096.861413, 8988.497589
  Before: min/max(he) = 2096.861413, 8988.497589
  Before: min/max(he) = 2096.861413, 8988.497589
DILUPBiCGStab:  Solving for h, Initial residual = 0.2883243823, Final residual = 0.0008585664076, No Iterations 1
After: min/max(he) = 2105.211423, 17565.20386
In thermoCorrectByCantera.h
DILUPBiCGStab:  Solving for h, Initial residual = 0.2883243823, Final residual = 0.0008585664076, No Iterations 1
After: min/max(he) = 2105.211423, 17565.20386
In thermoCorrectByCantera.h
DILUPBiCGStab:  Solving for h, Initial residual = 0.2883243823, Final residual = 0.0008585664076, No Iterations 1
After: min/max(he) = 2105.211423, 17565.20386
In thermoCorrectByCantera.h
DILUPBiCGStab:  Solving for h, Initial residual = 0.2883243823, Final residual = 0.0008585664076, No Iterations 1
After: min/max(he) = 2105.211423, 17565.20386
In thermoCorrectByCantera.h
DILUPBiCGStab:  Solving for h, Initial residual = 0.2883243823, Final residual = 0.0008585664076, No Iterations 1
After: min/max(he) = 2105.211423, 17565.20386
In thermoCorrectByCantera.h
Before bnds
Before patch loop
Ended thermoCorrect
min/max(T) = 300, 313.5686184
Min Q:-4.374912698
Max Q:0
Before bnds
Before patch loop
Ended thermoCorrect
min/max(T) = 300, 313.5686184
Min Q:-4.374912698
Max Q:0
Before bnds
Before patch loop
Before bnds
Before patch loop
Before bnds
Before patch loop
Ended thermoCorrect
min/max(T) = 300, 313.5686184
Min Q:-4.374912698
Max Q:0
Ended thermoCorrect
min/max(T) = 300, 313.5686184
Ended thermoCorrect
Min Q:-4.374912698
Max Q:0
min/max(T) = 300, 313.5686184
Min Q:-4.374912698
Max Q:0
DICPCG:  Solving for p, Initial residual = 0.9677665783, Final residual = 0.009228135921, No Iterations 82
diagonal:  Solving for rho, Initial residual = 0, Final residual = 0, No Iterations 0
time step continuity errors : sum local = 2.120395734e-05, global = -6.741262218e-09, cumulative = -2.661994994e-05
DICPCG:  Solving for p, Initial residual = 0.9677665783, Final residual = 0.009228135921, No Iterations 82
diagonal:  Solving for rho, Initial residual = 0, Final residual = 0, No Iterations 0
time step continuity errors : sum local = 2.120395734e-05, global = -6.741262218e-09, cumulative = -2.661994994e-05
DICPCG:  Solving for p, Initial residual = 0.9677665783, Final residual = 0.009228135921, No Iterations 82
diagonal:  Solving for rho, Initial residual = 0, Final residual = 0, No Iterations 0
time step continuity errors : sum local = 2.120395734e-05, global = -6.741262218e-09, cumulative = -2.661994994e-05
DICPCG:  Solving for p, Initial residual = 0.9677665783, Final residual = 0.009228135921, No Iterations 82
DICPCG:  Solving for p, Initial residual = 0.9677665783, Final residual = 0.009228135921, No Iterations 82
DICPCG:  Solving for p, Initial residual = 0.9677665783, Final residual = 0.009228135921, No Iterations 82
diagonal:  Solving for rho, Initial residual = 0, Final residual = 0, No Iterations 0
diagonal:  Solving for rho, Initial residual = 0, Final residual = 0, No Iterations 0
time step continuity errors : sum local = 2.120395734e-05, global = -6.741262218e-09, cumulative = -2.661994994e-05
time step continuity errors : sum local = 2.120395734e-05, global = -6.741262218e-09, cumulative = -2.661994994e-05
diagonal:  Solving for rho, Initial residual = 0, Final residual = 0, No Iterations 0
time step continuity errors : sum local = 2.120395734e-05, global = -6.741262218e-09, cumulative = -2.661994994e-05
DICPCG:  Solving for p, Initial residual = 0.158204704, Final residual = 9.891328773e-06, No Iterations 129
diagonal:  Solving for rho, Initial residual = 0, Final residual = 0, No Iterations 0
time step continuity errors : sum local = 1.452612412e-08, global = -8.196204837e-12, cumulative = -2.661995814e-05
ExecutionTime = 41.43 s  ClockTime = 42 s

    min/max/integ(Walls) = -8641.789642, -6.46753105, -0.03753340436
Courant Number mean: 0.03348824674 max: 0.1286767443
deltaT = 1.728e-05
---NormalisedGradT: min = min(normalisedGradT) [0 0 0 0 0 0 0] 1.16022223e-06   max = max(normalisedGradT) [0 0 0 0 0 0 0] 1
Time = 4.368e-05

Before mesh update
Time before mesh update
ExecutionTime = 41.68 s  ClockTime = 42 s

Time after mesh update
ExecutionTime = 41.68 s  ClockTime = 42 s

After mesh update: 0
diagonal:  Solving for rho, Initial residual = 0, Final residual = 0, No Iterations 0
PIMPLE: iteration 1
DICPCG:  Solving for p, Initial residual = 0.158204704, Final residual = 9.891328773e-06, No Iterations 129
DILUPBiCGStab:  Solving for Ux, Initial residual = 0.3747044684, Final residual = 9.852477572e-05, No Iterations 1
diagonal:  Solving for rho, Initial residual = 0, Final residual = 0, No Iterations 0
time step continuity errors : sum local = 1.452612412e-08, global = -8.196204837e-12, cumulative = -2.661995814e-05
DILUPBiCGStab:  Solving for Uy, Initial residual = 0.2867652902, Final residual = 0.0001471415212, No Iterations 1
DILUPBiCGStab:  Solving for Uz, Initial residual = 0.05760915431, Final residual = 5.772576234e-05, No Iterations 1
ExecutionTime = 42.93 s  ClockTime = 43 s

    min/max/integ(Walls) = -8641.789642, -6.46753105, -0.03753340436
Courant Number mean: 0.03348824674 max: 0.1286767443
deltaT = 1.728e-05
---NormalisedGradT: min = min(normalisedGradT) [0 0 0 0 0 0 0] 1.16022223e-06   max = max(normalisedGradT) [0 0 0 0 0 0 0] 1
Time = 4.368e-05

Before mesh update
Time before mesh update
ExecutionTime = 43.18 s  ClockTime = 44 s

Time after mesh update
ExecutionTime = 43.18 s  ClockTime = 44 s

After mesh update: 0
diagonal:  Solving for rho, Initial residual = 0, Final residual = 0, No Iterations 0
PIMPLE: iteration 1
DICPCG:  Solving for p, Initial residual = 0.158204704, Final residual = 9.891328773e-06, No Iterations 129
diagonal:  Solving for rho, Initial residual = 0, Final residual = 0, No Iterations 0
time step continuity errors : sum local = 1.452612412e-08, global = -8.196204837e-12, cumulative = -2.661995814e-05
ExecutionTime = 43.52 s  ClockTime = 44 s

    min/max/integ(Walls) = -8641.789642, -6.46753105, -0.03753340436
DICPCG:  Solving for p, Initial residual = 0.158204704, Final residual = 9.891328773e-06, No Iterations 129
DICPCG:  Solving for p, Initial residual = 0.158204704, Final residual = 9.891328773e-06, No Iterations 129
Courant Number mean: 0.03348824674 max: 0.1286767443
deltaT = 1.728e-05
diagonal:  Solving for rho, Initial residual = 0, Final residual = 0, No Iterations 0
diagonal:  Solving for rho, Initial residual = 0, Final residual = 0, No Iterations 0
DICPCG:  Solving for p, Initial residual = 0.158204704, Final residual = 9.891328773e-06, No Iterations 129
time step continuity errors : sum local = 1.452612412e-08, global = -8.196204837e-12, cumulative = -2.661995814e-05
time step continuity errors : sum local = 1.452612412e-08, global = -8.196204837e-12, cumulative = -2.661995814e-05
---NormalisedGradT: min = min(normalisedGradT) [0 0 0 0 0 0 0] 1.16022223e-06   max = max(normalisedGradT) [0 0 0 0 0 0 0] 1
Time = 4.368e-05

Before mesh update
Time before mesh update
ExecutionTime = 43.79 s  ClockTime = 44 s

Time after mesh update
ExecutionTime = 43.79 s  ClockTime = 44 s

After mesh update: 0
diagonal:  Solving for rho, Initial residual = 0, Final residual = 0, No Iterations 0
time step continuity errors : sum local = 1.452612412e-08, global = -8.196204837e-12, cumulative = -2.661995814e-05
diagonal:  Solving for rho, Initial residual = 0, Final residual = 0, No Iterations 0
PIMPLE: iteration 1
ExecutionTime = 44.09 s  ClockTime = 44 s

ExecutionTime = 44.09 s  ClockTime = 44 s

ExecutionTime = 44.15 s  ClockTime = 44 s

DILUPBiCGStab:  Solving for Ux, Initial residual = 0.3747044684, Final residual = 9.852477572e-05, No Iterations 1
    min/max/integ(Walls) = -8641.789642, -6.46753105, -0.03753340436
    min/max/integ(Walls) = -8641.789642, -6.46753105, -0.03753340436
Before reaction->correct():
Time before reaction
ExecutionTime = 44.25 s  ClockTime = 45 s

Courant Number mean: 0.03348824674 max: 0.1286767443
deltaT = 1.728e-05
Courant Number mean: 0.03348824674 max: 0.1286767443
deltaT = 1.728e-05
    min/max/integ(Walls) = -8641.789642, -6.46753105, -0.03753340436
Courant Number mean: 0.03348824674 max: 0.1286767443
deltaT = 1.728e-05
---NormalisedGradT: min = min(normalisedGradT) [0 0 0 0 0 0 0] 1.16022223e-06   max = max(normalisedGradT) [0 0 0 0 0 0 0] 1
Time = 4.368e-05

---NormalisedGradT: min = min(normalisedGradT) [0 0 0 0 0 0 0] 1.16022223e-06   max = max(normalisedGradT) [0 0 0 0 0 0 0] 1
Time = 4.368e-05

DILUPBiCGStab:  Solving for Uy, Initial residual = 0.2867652902, Final residual = 0.0001471415212, No Iterations 1
Before mesh update
Time before mesh update
ExecutionTime = 44.33 s  ClockTime = 45 s

Time after mesh update
ExecutionTime = 44.33 s  ClockTime = 45 s

After mesh update: 0
Before mesh update
Time before mesh update
ExecutionTime = 44.32 s  ClockTime = 45 s

Time after mesh update
ExecutionTime = 44.32 s  ClockTime = 45 s

After mesh update: 0
diagonal:  Solving for rho, Initial residual = 0, Final residual = 0, No Iterations 0
diagonal:  Solving for rho, Initial residual = 0, Final residual = 0, No Iterations 0
PIMPLE: iteration 1
PIMPLE: iteration 1
---NormalisedGradT: min = min(normalisedGradT) [0 0 0 0 0 0 0] 1.16022223e-06   max = max(normalisedGradT) [0 0 0 0 0 0 0] 1
Time = 4.368e-05

Before mesh update
Time before mesh update
ExecutionTime = 44.39 s  ClockTime = 45 s

Time after mesh update
ExecutionTime = 44.39 s  ClockTime = 45 s

After mesh update: 0
diagonal:  Solving for rho, Initial residual = 0, Final residual = 0, No Iterations 0
PIMPLE: iteration 1
DILUPBiCGStab:  Solving for Uz, Initial residual = 0.05760915431, Final residual = 5.772576234e-05, No Iterations 1
DILUPBiCGStab:  Solving for Ux, Initial residual = 0.3747044684, Final residual = 9.852477572e-05, No Iterations 1
DILUPBiCGStab:  Solving for Uy, Initial residual = 0.2867652902, Final residual = 0.0001471415212, No Iterations 1
Time after reaction
ExecutionTime = 44.97 s  ClockTime = 45 s

Done reaction->correct():
DILUPBiCGStab:  Solving for Uz, Initial residual = 0.05760915431, Final residual = 5.772576234e-05, No Iterations 1
DILUPBiCGStab:  Solving for Ux, Initial residual = 0.3747044684, Final residual = 9.852477572e-05, No Iterations 1
DILUPBiCGStab:  Solving for Ux, Initial residual = 0.3747044684, Final residual = 9.852477572e-05, No Iterations 1
DILUPBiCGStab:  Solving for Ux, Initial residual = 0.3747044684, Final residual = 9.852477572e-05, No Iterations 1
DILUPBiCGStab:  Solving for Uy, Initial residual = 0.2867652902, Final residual = 0.0001471415212, No Iterations 1
DILUPBiCGStab:  Solving for Uy, Initial residual = 0.2867652902, Final residual = 0.0001471415212, No Iterations 1
DILUPBiCGStab:  Solving for Uy, Initial residual = 0.2867652902, Final residual = 0.0001471415212, No Iterations 1
DILUPBiCGStab:  Solving for CH4, Initial residual = 0.08313017445, Final residual = 0.0001604681813, No Iterations 1
DILUPBiCGStab:  Solving for Uz, Initial residual = 0.05760915431, Final residual = 5.772576234e-05, No Iterations 1
DILUPBiCGStab:  Solving for Uz, Initial residual = 0.05760915431, Final residual = 5.772576234e-05, No Iterations 1
DILUPBiCGStab:  Solving for Uz, Initial residual = 0.05760915431, Final residual = 5.772576234e-05, No Iterations 1
Before reaction->correct():
Time before reaction
ExecutionTime = 45.96 s  ClockTime = 46 s

DILUPBiCGStab:  Solving for CH2, Initial residual = 0.9561745812, Final residual = 0.001899768507, No Iterations 1
Before reaction->correct():
Time before reaction
ExecutionTime = 46.51 s  ClockTime = 47 s

Time after reaction
ExecutionTime = 46.67 s  ClockTime = 47 s

Done reaction->correct():
DILUPBiCGStab:  Solving for H2, Initial residual = 0.1730403172, Final residual = 0.001632928314, No Iterations 1
Before reaction->correct():
Time before reaction
ExecutionTime = 47.03 s  ClockTime = 47 s

Before reaction->correct():
Time before reaction
ExecutionTime = 47.03 s  ClockTime = 47 s

Before reaction->correct():
Time before reaction
ExecutionTime = 47.09 s  ClockTime = 47 s

DILUPBiCGStab:  Solving for CH4, Initial residual = 0.08313017445, Final residual = 0.0001604681813, No Iterations 1
DILUPBiCGStab:  Solving for O2, Initial residual = 0.08012198293, Final residual = 0.0001430486087, No Iterations 1
Time after reaction
ExecutionTime = 47.22 s  ClockTime = 48 s

Done reaction->correct():
DILUPBiCGStab:  Solving for CH2, Initial residual = 0.9561745812, Final residual = 0.001899768507, No Iterations 1
DILUPBiCGStab:  Solving for CO, Initial residual = 0.001394146712, Final residual = 3.713808097e-06, No Iterations 1
DILUPBiCGStab:  Solving for CH4, Initial residual = 0.08313017445, Final residual = 0.0001604681813, No Iterations 1
Time after reaction
ExecutionTime = 47.72 s  ClockTime = 48 s

Done reaction->correct():
Time after reaction
ExecutionTime = 47.73 s  ClockTime = 48 s

Done reaction->correct():
Time after reaction
ExecutionTime = 47.78 s  ClockTime = 48 s

Done reaction->correct():
DILUPBiCGStab:  Solving for CO2, Initial residual = 1.303551027e-26, Final residual = 1.303551027e-26, No Iterations 0
DILUPBiCGStab:  Solving for H2, Initial residual = 0.1730403172, Final residual = 0.001632928314, No Iterations 1
DILUPBiCGStab:  Solving for CH2, Initial residual = 0.9561745812, Final residual = 0.001899768507, No Iterations 1
DILUPBiCGStab:  Solving for CH4, Initial residual = 0.08313017445, Final residual = 0.0001604681813, No Iterations 1
DILUPBiCGStab:  Solving for CH4, Initial residual = 0.08313017445, Final residual = 0.0001604681813, No Iterations 1
DILUPBiCGStab:  Solving for H2O, Initial residual = 0.9472504927, Final residual = 0.002129885056, No Iterations 1
DILUPBiCGStab:  Solving for CH4, Initial residual = 0.08313017445, Final residual = 0.0001604681813, No Iterations 1
DILUPBiCGStab:  Solving for O2, Initial residual = 0.08012198293, Final residual = 0.0001430486087, No Iterations 1
 In EEqn.H: min/max(T) = 300, 313.5686184
DILUPBiCGStab:  Solving for H2, Initial residual = 0.1730403172, Final residual = 0.001632928314, No Iterations 1
   Min Q:-9.168307816
   Max Q:0
  Before: min/max(he) = 2105.211423, 17565.20386
DILUPBiCGStab:  Solving for CH2, Initial residual = 0.9561745812, Final residual = 0.001899768507, No Iterations 1
DILUPBiCGStab:  Solving for CH2, Initial residual = 0.9561745812, Final residual = 0.001899768507, No Iterations 1
DILUPBiCGStab:  Solving for CH2, Initial residual = 0.9561745812, Final residual = 0.001899768507, No Iterations 1
DILUPBiCGStab:  Solving for CO, Initial residual = 0.001394146712, Final residual = 3.713808097e-06, No Iterations 1
DILUPBiCGStab:  Solving for O2, Initial residual = 0.08012198293, Final residual = 0.0001430486087, No Iterations 1
DILUPBiCGStab:  Solving for H2, Initial residual = 0.1730403172, Final residual = 0.001632928314, No Iterations 1
DILUPBiCGStab:  Solving for H2, Initial residual = 0.1730403172, Final residual = 0.001632928314, No Iterations 1
DILUPBiCGStab:  Solving for H2, Initial residual = 0.1730403172, Final residual = 0.001632928314, No Iterations 1
DILUPBiCGStab:  Solving for h, Initial residual = 0.1800709866, Final residual = 0.000797955639, No Iterations 1
DILUPBiCGStab:  Solving for CO2, Initial residual = 1.303551027e-26, Final residual = 1.303551027e-26, No Iterations 0
After: min/max(he) = 2105.219601, 27950.97204
In thermoCorrectByCantera.h
DILUPBiCGStab:  Solving for CO, Initial residual = 0.001394146712, Final residual = 3.713808097e-06, No Iterations 1
DILUPBiCGStab:  Solving for O2, Initial residual = 0.08012198293, Final residual = 0.0001430486087, No Iterations 1
DILUPBiCGStab:  Solving for O2, Initial residual = 0.08012198293, Final residual = 0.0001430486087, No Iterations 1
Before bnds
Before patch loop
Ended thermoCorrect
min/max(T) = 300, 322.6661687
Min Q:-9.168307816
Max Q:0
DILUPBiCGStab:  Solving for O2, Initial residual = 0.08012198293, Final residual = 0.0001430486087, No Iterations 1
DILUPBiCGStab:  Solving for H2O, Initial residual = 0.9472504927, Final residual = 0.002129885056, No Iterations 1
DILUPBiCGStab:  Solving for CO2, Initial residual = 1.303551027e-26, Final residual = 1.303551027e-26, No Iterations 0
 In EEqn.H: min/max(T) = 300, 313.5686184
   Min Q:-9.168307816
   Max Q:0
  Before: min/max(he) = 2105.211423, 17565.20386
DILUPBiCGStab:  Solving for CO, Initial residual = 0.001394146712, Final residual = 3.713808097e-06, No Iterations 1
DILUPBiCGStab:  Solving for CO, Initial residual = 0.001394146712, Final residual = 3.713808097e-06, No Iterations 1
DILUPBiCGStab:  Solving for CO, Initial residual = 0.001394146712, Final residual = 3.713808097e-06, No Iterations 1
DILUPBiCGStab:  Solving for H2O, Initial residual = 0.9472504927, Final residual = 0.002129885056, No Iterations 1
DILUPBiCGStab:  Solving for CO2, Initial residual = 1.303551027e-26, Final residual = 1.303551027e-26, No Iterations 0
DILUPBiCGStab:  Solving for CO2, Initial residual = 1.303551027e-26, Final residual = 1.303551027e-26, No Iterations 0
DILUPBiCGStab:  Solving for CO2, Initial residual = 1.303551027e-26, Final residual = 1.303551027e-26, No Iterations 0
DILUPBiCGStab:  Solving for h, Initial residual = 0.1800709866, Final residual = 0.000797955639, No Iterations 1
After: min/max(he) = 2105.219601, 27950.97204
In thermoCorrectByCantera.h
 In EEqn.H: min/max(T) = 300, 313.5686184
   Min Q:-9.168307816
   Max Q:0
  Before: min/max(he) = 2105.211423, 17565.20386
DILUPBiCGStab:  Solving for H2O, Initial residual = 0.9472504927, Final residual = 0.002129885056, No Iterations 1
DILUPBiCGStab:  Solving for H2O, Initial residual = 0.9472504927, Final residual = 0.002129885056, No Iterations 1
DILUPBiCGStab:  Solving for H2O, Initial residual = 0.9472504927, Final residual = 0.002129885056, No Iterations 1
Before bnds
Before patch loop
Ended thermoCorrect
min/max(T) = 300, 322.6661687
Min Q:-9.168307816
Max Q:0
 In EEqn.H: min/max(T) = 300, 313.5686184
 In EEqn.H: min/max(T) = 300, 313.5686184
   Min Q:-9.168307816
   Min Q:-9.168307816
 In EEqn.H: min/max(T) = 300, 313.5686184
   Max Q:0
  Before: min/max(he) = 2105.211423, 17565.20386
   Max Q:0
  Before: min/max(he) = 2105.211423, 17565.20386
   Min Q:-9.168307816
   Max Q:0
  Before: min/max(he) = 2105.211423, 17565.20386
DILUPBiCGStab:  Solving for h, Initial residual = 0.1800709866, Final residual = 0.000797955639, No Iterations 1
After: min/max(he) = 2105.219601, 27950.97204
In thermoCorrectByCantera.h
Before bnds
Before patch loop
Ended thermoCorrect
min/max(T) = 300, 322.6661687
Min Q:-9.168307816
Max Q:0
DILUPBiCGStab:  Solving for h, Initial residual = 0.1800709866, Final residual = 0.000797955639, No Iterations 1
After: min/max(he) = 2105.219601, 27950.97204
In thermoCorrectByCantera.h
DILUPBiCGStab:  Solving for h, Initial residual = 0.1800709866, Final residual = 0.000797955639, No Iterations 1
After: min/max(he) = 2105.219601, 27950.97204
In thermoCorrectByCantera.h
DILUPBiCGStab:  Solving for h, Initial residual = 0.1800709866, Final residual = 0.000797955639, No Iterations 1
After: min/max(he) = 2105.219601, 27950.97204
In thermoCorrectByCantera.h
Before bnds
Before patch loop
Ended thermoCorrect
min/max(T) = 300, 322.6661687
Min Q:-9.168307816
Max Q:0
Before bnds
Before patch loop
Ended thermoCorrect
min/max(T) = 300, 322.6661687
Min Q:-9.168307816
Max Q:0
Before bnds
Before patch loop
Ended thermoCorrect
min/max(T) = 300, 322.6661687
Min Q:-9.168307816
Max Q:0
DICPCG:  Solving for p, Initial residual = 0.7033886323, Final residual = 0.006368934748, No Iterations 81
diagonal:  Solving for rho, Initial residual = 0, Final residual = 0, No Iterations 0
time step continuity errors : sum local = 1.12458186e-05, global = 1.210795989e-08, cumulative = -2.660785018e-05
DICPCG:  Solving for p, Initial residual = 0.7033886323, Final residual = 0.006368934748, No Iterations 81
diagonal:  Solving for rho, Initial residual = 0, Final residual = 0, No Iterations 0
time step continuity errors : sum local = 1.12458186e-05, global = 1.210795989e-08, cumulative = -2.660785018e-05
DICPCG:  Solving for p, Initial residual = 0.7033886323, Final residual = 0.006368934748, No Iterations 81
diagonal:  Solving for rho, Initial residual = 0, Final residual = 0, No Iterations 0
time step continuity errors : sum local = 1.12458186e-05, global = 1.210795989e-08, cumulative = -2.660785018e-05
DICPCG:  Solving for p, Initial residual = 0.7033886323, Final residual = 0.006368934748, No Iterations 81
DICPCG:  Solving for p, Initial residual = 0.7033886323, Final residual = 0.006368934748, No Iterations 81
DICPCG:  Solving for p, Initial residual = 0.7033886323, Final residual = 0.006368934748, No Iterations 81
diagonal:  Solving for rho, Initial residual = 0, Final residual = 0, No Iterations 0
diagonal:  Solving for rho, Initial residual = 0, Final residual = 0, No Iterations 0
time step continuity errors : sum local = 1.12458186e-05, global = 1.210795989e-08, cumulative = -2.660785018e-05
diagonal:  Solving for rho, Initial residual = 0, Final residual = 0, No Iterations 0
time step continuity errors : sum local = 1.12458186e-05, global = 1.210795989e-08, cumulative = -2.660785018e-05
time step continuity errors : sum local = 1.12458186e-05, global = 1.210795989e-08, cumulative = -2.660785018e-05
DICPCG:  Solving for p, Initial residual = 0.1585343528, Final residual = 8.820431796e-06, No Iterations 147
diagonal:  Solving for rho, Initial residual = 0, Final residual = 0, No Iterations 0
time step continuity errors : sum local = 5.062791389e-09, global = -9.283670376e-13, cumulative = -2.66078511e-05
ExecutionTime = 63.64 s  ClockTime = 64 s

    min/max/integ(Walls) = -13755.64837, -35.48099204, -0.06943938897
Courant Number mean: 0.040799464 max: 0.1613445213
deltaT = 2.0736e-05
---NormalisedGradT: min = min(normalisedGradT) [0 0 0 0 0 0 0] 1.792886849e-06   max = max(normalisedGradT) [0 0 0 0 0 0 0] 1
Time = 6.4416e-05

Before mesh update
Time before mesh update
ExecutionTime = 63.88 s  ClockTime = 64 s

Time after mesh update
ExecutionTime = 63.88 s  ClockTime = 64 s

After mesh update: 0
diagonal:  Solving for rho, Initial residual = 0, Final residual = 0, No Iterations 0
PIMPLE: iteration 1
DILUPBiCGStab:  Solving for Ux, Initial residual = 0.1579962902, Final residual = 9.323294431e-05, No Iterations 1
DICPCG:  Solving for p, Initial residual = 0.1585343528, Final residual = 8.820431796e-06, No Iterations 147
DILUPBiCGStab:  Solving for Uy, Initial residual = 0.2064717932, Final residual = 0.0001591892896, No Iterations 1
diagonal:  Solving for rho, Initial residual = 0, Final residual = 0, No Iterations 0
time step continuity errors : sum local = 5.062791389e-09, global = -9.283670376e-13, cumulative = -2.66078511e-05
DILUPBiCGStab:  Solving for Uz, Initial residual = 0.0166080962, Final residual = 2.437822923e-05, No Iterations 1
ExecutionTime = 65.3 s  ClockTime = 66 s

    min/max/integ(Walls) = -13755.64837, -35.48099204, -0.06943938897
Courant Number mean: 0.040799464 max: 0.1613445213
deltaT = 2.0736e-05
---NormalisedGradT: min = min(normalisedGradT) [0 0 0 0 0 0 0] 1.792886849e-06   max = max(normalisedGradT) [0 0 0 0 0 0 0] 1
Time = 6.4416e-05

Before mesh update
Time before mesh update
ExecutionTime = 65.55 s  ClockTime = 66 s

Time after mesh update
ExecutionTime = 65.55 s  ClockTime = 66 s

After mesh update: 0
diagonal:  Solving for rho, Initial residual = 0, Final residual = 0, No Iterations 0
PIMPLE: iteration 1
DICPCG:  Solving for p, Initial residual = 0.1585343528, Final residual = 8.820431796e-06, No Iterations 147
diagonal:  Solving for rho, Initial residual = 0, Final residual = 0, No Iterations 0
time step continuity errors : sum local = 5.062791389e-09, global = -9.283670376e-13, cumulative = -2.66078511e-05
ExecutionTime = 66.34 s  ClockTime = 67 s

    min/max/integ(Walls) = -13755.64837, -35.48099204, -0.06943938897
Courant Number mean: 0.040799464 max: 0.1613445213
deltaT = 2.0736e-05
Before reaction->correct():
Time before reaction
ExecutionTime = 66.58 s  ClockTime = 67 s

DILUPBiCGStab:  Solving for Ux, Initial residual = 0.1579962902, Final residual = 9.323294431e-05, No Iterations 1
---NormalisedGradT: min = min(normalisedGradT) [0 0 0 0 0 0 0] 1.792886849e-06   max = max(normalisedGradT) [0 0 0 0 0 0 0] 1
Time = 6.4416e-05

Before mesh update
Time before mesh update
ExecutionTime = 66.57 s  ClockTime = 67 s

Time after mesh update
ExecutionTime = 66.57 s  ClockTime = 67 s

After mesh update: 0
diagonal:  Solving for rho, Initial residual = 0, Final residual = 0, No Iterations 0
PIMPLE: iteration 1
DILUPBiCGStab:  Solving for Uy, Initial residual = 0.2064717932, Final residual = 0.0001591892896, No Iterations 1
DILUPBiCGStab:  Solving for Uz, Initial residual = 0.0166080962, Final residual = 2.437822923e-05, No Iterations 1
DICPCG:  Solving for p, Initial residual = 0.1585343528, Final residual = 8.820431796e-06, No Iterations 147
DICPCG:  Solving for p, Initial residual = 0.1585343528, Final residual = 8.820431796e-06, No Iterations 147
DICPCG:  Solving for p, Initial residual = 0.1585343528, Final residual = 8.820431796e-06, No Iterations 147
diagonal:  Solving for rho, Initial residual = 0, Final residual = 0, No Iterations 0
diagonal:  Solving for rho, Initial residual = 0, Final residual = 0, No Iterations 0
diagonal:  Solving for rho, Initial residual = 0, Final residual = 0, No Iterations 0
time step continuity errors : sum local = 5.062791389e-09, global = -9.283670376e-13, cumulative = -2.66078511e-05
time step continuity errors : sum local = 5.062791389e-09, global = -9.283670376e-13, cumulative = -2.66078511e-05
time step continuity errors : sum local = 5.062791389e-09, global = -9.283670376e-13, cumulative = -2.66078511e-05
ExecutionTime = 67.16 s  ClockTime = 67 s

ExecutionTime = 67.16 s  ClockTime = 67 s

ExecutionTime = 67.17 s  ClockTime = 68 s

    min/max/integ(Walls) = -13755.64837, -35.48099204, -0.06943938897
    min/max/integ(Walls) = -13755.64837, -35.48099204, -0.06943938897
Time after reaction
ExecutionTime = 67.29 s  ClockTime = 68 s

Done reaction->correct():
    min/max/integ(Walls) = -13755.64837, -35.48099204, -0.06943938897
Courant Number mean: 0.040799464 max: 0.1613445213
deltaT = 2.0736e-05
Courant Number mean: 0.040799464 max: 0.1613445213
deltaT = 2.0736e-05
Courant Number mean: 0.040799464 max: 0.1613445213
deltaT = 2.0736e-05
---NormalisedGradT: min = min(normalisedGradT) [0 0 0 0 0 0 0] 1.792886849e-06   max = max(normalisedGradT) [0 0 0 0 0 0 0] 1
Time = 6.4416e-05

---NormalisedGradT: min = min(normalisedGradT) [0 0 0 0 0 0 0] 1.792886849e-06   max = max(normalisedGradT) [0 0 0 0 0 0 0] 1
Time = 6.4416e-05

Before mesh update
Time before mesh update
ExecutionTime = 67.42 s  ClockTime = 68 s

Time after mesh update
ExecutionTime = 67.42 s  ClockTime = 68 s

After mesh update: 0
Before mesh update
Time before mesh update
ExecutionTime = 67.42 s  ClockTime = 68 s

Time after mesh update
ExecutionTime = 67.42 s  ClockTime = 68 s

After mesh update: 0
---NormalisedGradT: min = min(normalisedGradT) [0 0 0 0 0 0 0] 1.792886849e-06   max = max(normalisedGradT) [0 0 0 0 0 0 0] 1
Time = 6.4416e-05

Before mesh update
Time before mesh update
ExecutionTime = 67.43 s  ClockTime = 68 s

Time after mesh update
ExecutionTime = 67.43 s  ClockTime = 68 s

After mesh update: 0
diagonal:  Solving for rho, Initial residual = 0, Final residual = 0, No Iterations 0
diagonal:  Solving for rho, Initial residual = 0, Final residual = 0, No Iterations 0
PIMPLE: iteration 1
PIMPLE: iteration 1
diagonal:  Solving for rho, Initial residual = 0, Final residual = 0, No Iterations 0
PIMPLE: iteration 1
DILUPBiCGStab:  Solving for Ux, Initial residual = 0.1579962902, Final residual = 9.323294431e-05, No Iterations 1
DILUPBiCGStab:  Solving for Uy, Initial residual = 0.2064717932, Final residual = 0.0001591892896, No Iterations 1
DILUPBiCGStab:  Solving for Uz, Initial residual = 0.0166080962, Final residual = 2.437822923e-05, No Iterations 1
DILUPBiCGStab:  Solving for CH4, Initial residual = 0.09894290379, Final residual = 0.0002692827593, No Iterations 1
Before reaction->correct():
Time before reaction
ExecutionTime = 68.33 s  ClockTime = 69 s

DILUPBiCGStab:  Solving for CH2, Initial residual = 0.8627756593, Final residual = 0.003574600069, No Iterations 1
DILUPBiCGStab:  Solving for Ux, Initial residual = 0.1579962902, Final residual = 9.323294431e-05, No Iterations 1
DILUPBiCGStab:  Solving for Ux, Initial residual = 0.1579962902, Final residual = 9.323294431e-05, No Iterations 1
DILUPBiCGStab:  Solving for Ux, Initial residual = 0.1579962902, Final residual = 9.323294431e-05, No Iterations 1
DILUPBiCGStab:  Solving for Uy, Initial residual = 0.2064717932, Final residual = 0.0001591892896, No Iterations 1
DILUPBiCGStab:  Solving for Uy, Initial residual = 0.2064717932, Final residual = 0.0001591892896, No Iterations 1
DILUPBiCGStab:  Solving for Uy, Initial residual = 0.2064717932, Final residual = 0.0001591892896, No Iterations 1
DILUPBiCGStab:  Solving for Uz, Initial residual = 0.0166080962, Final residual = 2.437822923e-05, No Iterations 1
DILUPBiCGStab:  Solving for Uz, Initial residual = 0.0166080962, Final residual = 2.437822923e-05, No Iterations 1
DILUPBiCGStab:  Solving for Uz, Initial residual = 0.0166080962, Final residual = 2.437822923e-05, No Iterations 1
DILUPBiCGStab:  Solving for H2, Initial residual = 0.181557074, Final residual = 0.00218788468, No Iterations 1
Time after reaction
ExecutionTime = 69.04 s  ClockTime = 69 s

Done reaction->correct():
Before reaction->correct():
Time before reaction
ExecutionTime = 69.16 s  ClockTime = 70 s

DILUPBiCGStab:  Solving for O2, Initial residual = 0.09582764629, Final residual = 0.0002419989011, No Iterations 1
DILUPBiCGStab:  Solving for CH4, Initial residual = 0.09894290379, Final residual = 0.0002692827593, No Iterations 1
DILUPBiCGStab:  Solving for CO, Initial residual = 0.002610815352, Final residual = 1.174201154e-05, No Iterations 1
Time after reaction
ExecutionTime = 69.87 s  ClockTime = 70 s

Done reaction->correct():
Before reaction->correct():
Time before reaction
ExecutionTime = 69.97 s  ClockTime = 70 s

Before reaction->correct():
Time before reaction
ExecutionTime = 69.99 s  ClockTime = 70 s

DILUPBiCGStab:  Solving for CH2, Initial residual = 0.8627756593, Final residual = 0.003574600069, No Iterations 1
Before reaction->correct():
Time before reaction
ExecutionTime = 70.01 s  ClockTime = 70 s

DILUPBiCGStab:  Solving for CO2, Initial residual = 2.696325483e-25, Final residual = 2.696325483e-25, No Iterations 0
DILUPBiCGStab:  Solving for CH4, Initial residual = 0.09894290379, Final residual = 0.0002692827593, No Iterations 1
DILUPBiCGStab:  Solving for H2, Initial residual = 0.181557074, Final residual = 0.00218788468, No Iterations 1
DILUPBiCGStab:  Solving for H2O, Initial residual = 0.8391724773, Final residual = 0.003921288707, No Iterations 1
DILUPBiCGStab:  Solving for CH2, Initial residual = 0.8627756593, Final residual = 0.003574600069, No Iterations 1
DILUPBiCGStab:  Solving for O2, Initial residual = 0.09582764629, Final residual = 0.0002419989011, No Iterations 1
Time after reaction
ExecutionTime = 70.66 s  ClockTime = 71 s

Done reaction->correct():
 In EEqn.H: min/max(T) = 300, 322.6661687
Time after reaction
ExecutionTime = 70.69 s  ClockTime = 71 s

Done reaction->correct():
   Min Q:-21.38342391
   Max Q:0
Time after reaction
ExecutionTime = 70.73 s  ClockTime = 71 s

Done reaction->correct():
  Before: min/max(he) = 2105.219601, 27950.97204
DILUPBiCGStab:  Solving for H2, Initial residual = 0.181557074, Final residual = 0.00218788468, No Iterations 1
DILUPBiCGStab:  Solving for CO, Initial residual = 0.002610815352, Final residual = 1.174201154e-05, No Iterations 1
DILUPBiCGStab:  Solving for CH4, Initial residual = 0.09894290379, Final residual = 0.0002692827593, No Iterations 1
DILUPBiCGStab:  Solving for CH4, Initial residual = 0.09894290379, Final residual = 0.0002692827593, No Iterations 1
DILUPBiCGStab:  Solving for CH4, Initial residual = 0.09894290379, Final residual = 0.0002692827593, No Iterations 1
DILUPBiCGStab:  Solving for CO2, Initial residual = 2.696325483e-25, Final residual = 2.696325483e-25, No Iterations 0
[...]

volFieldValue AFlame_volIntegrate write:
    volIntegrate(region0) of interfaceAreaFlame = 7.163979793e-05

    min/max/integ(Walls) = -127800.4516, 12.41829693, -4.770134707
wallHeatFlux wallHeatFlux1 write:
    writing field wallHeatFlux
volFieldValue volFieldValue1 write:
    max(region0) of Qdot = 981496588.1

Courant Number mean: 0.1531955986 max: 1.001756139
deltaT = 5.849749926e-05
---NormalisedGradT: min = min(normalisedGradT) [0 0 0 0 0 0 0] 2.836148495e-08   max = max(normalisedGradT) [0 0 0 0 0 0 0] 1
Time = 0.00853072

Before mesh update
Time before mesh update
ExecutionTime = 4835.49 s  ClockTime = 4854 s

Time after mesh update
ExecutionTime = 4835.49 s  ClockTime = 4854 s

After mesh update: 0
diagonal:  Solving for rho, Initial residual = 0, Final residual = 0, No Iterations 0
PIMPLE: iteration 1
DICPCG:  Solving for p, Initial residual = 0.1211640076, Final residual = 0.001126159638, No Iterations 184
diagonal:  Solving for rho, Initial residual = 0, Final residual = 0, No Iterations 0
time step continuity errors : sum local = 2.154313603e-07, global = 8.808546652e-10, cumulative = -2.632307562e-05
DILUPBiCGStab:  Solving for Ux, Initial residual = 0.002257218335, Final residual = 3.08402411e-05, No Iterations 2
DILUPBiCGStab:  Solving for Uy, Initial residual = 0.006229424456, Final residual = 9.800696579e-05, No Iterations 2
DILUPBiCGStab:  Solving for Uz, Initial residual = 0.01016548532, Final residual = 0.000466063784, No Iterations 1
Before reaction->correct():
Time before reaction
ExecutionTime = 4838.02 s  ClockTime = 4856 s

DICPCG:  Solving for p, Initial residual = 0.09281404578, Final residual = 0.0008730381428, No Iterations 190
diagonal:  Solving for rho, Initial residual = 0, Final residual = 0, No Iterations 0
time step continuity errors : sum local = 1.678436545e-07, global = -8.173185404e-12, cumulative = -2.632395663e-05
DICPCG:  Solving for p, Initial residual = 0.1069253895, Final residual = 0.001055552871, No Iterations 184
diagonal:  Solving for rho, Initial residual = 0, Final residual = 0, No Iterations 0
time step continuity errors : sum local = 2.053358984e-07, global = -6.939306501e-10, cumulative = -2.632395023e-05
DICPCG:  Solving for p, Initial residual = 0.0628208452, Final residual = 9.961139437e-06, No Iterations 231
diagonal:  Solving for rho, Initial residual = 0, Final residual = 0, No Iterations 0
time step continuity errors : sum local = 1.880288142e-09, global = -4.729646188e-12, cumulative = -2.632308035e-05
ExecutionTime = 4853.56 s  ClockTime = 4859 s

    min/max/integ(Walls) = -127325.0403, 12.39887734, -4.778997374
Courant Number mean: 0.1534154423 max: 1.001461651
deltaT = 5.841212113e-05
---NormalisedGradT: min = min(normalisedGradT) [0 0 0 0 0 0 0] 7.262248129e-08   max = max(normalisedGradT) [0 0 0 0 0 0 0] 1
Time = 0.00858913

Before mesh update
Time before mesh update
ExecutionTime = 4853.76 s  ClockTime = 4859 s

Time after mesh update
ExecutionTime = 4853.76 s  ClockTime = 4859 s

After mesh update: 0
diagonal:  Solving for rho, Initial residual = 0, Final residual = 0, No Iterations 0
PIMPLE: iteration 1
DILUPBiCGStab:  Solving for Ux, Initial residual = 0.001835771733, Final residual = 2.511967334e-05, No Iterations 2
DILUPBiCGStab:  Solving for Uy, Initial residual = 0.005034399978, Final residual = 7.808968588e-05, No Iterations 2
DILUPBiCGStab:  Solving for Uz, Initial residual = 0.008599598452, Final residual = 0.0001062142202, No Iterations 2
Before reaction->correct():
Time before reaction
ExecutionTime = 4855.84 s  ClockTime = 4861 s

DICPCG:  Solving for p, Initial residual = 0.04747391369, Final residual = 9.099530977e-06, No Iterations 221
diagonal:  Solving for rho, Initial residual = 0, Final residual = 0, No Iterations 0
time step continuity errors : sum local = 1.759493126e-09, global = 1.558754719e-13, cumulative = -2.632395648e-05
DICPCG:  Solving for p, Initial residual = 0.0628208452, Final residual = 9.961139437e-06, No Iterations 231
diagonal:  Solving for rho, Initial residual = 0, Final residual = 0, No Iterations 0
ExecutionTime = 4843.45 s  ClockTime = 4863 s

volFieldValue Qdot_volIntegrate write:
    volIntegrate(region0) of Qdot = 16.6292688

time step continuity errors : sum local = 1.880288142e-09, global = -4.729646188e-12, cumulative = -2.632308035e-05
volFieldValue AFlame_volIntegrate write:
    volIntegrate(region0) of interfaceAreaFlame = 7.163979793e-05

ExecutionTime = 4845.15 s  ClockTime = 4863 s

    min/max/integ(Walls) = -127800.4516, 12.41829693, -4.770134707
wallHeatFlux wallHeatFlux1 write:
    writing field wallHeatFlux
volFieldValue volFieldValue1 write:
    max(region0) of Qdot = 981496588.1

Courant Number mean: 0.1531955986 max: 1.001756139
deltaT = 5.849749926e-05
---NormalisedGradT: min = min(normalisedGradT) [0 0 0 0 0 0 0] 2.836148495e-08   max = max(normalisedGradT) [0 0 0 0 0 0 0] 1
Time = 0.00853072

Before mesh update
Time before mesh update
ExecutionTime = 4843.65 s  ClockTime = 4863 s

Time after mesh update
ExecutionTime = 4843.65 s  ClockTime = 4863 s

After mesh update: 0
diagonal:  Solving for rho, Initial residual = 0, Final residual = 0, No Iterations 0
PIMPLE: iteration 1
    min/max/integ(Walls) = -127325.0403, 12.39887734, -4.778997374
Time after reaction
ExecutionTime = 4844.81 s  ClockTime = 4863 s

Done reaction->correct():
Courant Number mean: 0.1534154423 max: 1.001461651
deltaT = 5.841212113e-05
---NormalisedGradT: min = min(normalisedGradT) [0 0 0 0 0 0 0] 7.262248129e-08   max = max(normalisedGradT) [0 0 0 0 0 0 0] 1
Time = 0.00858913

Before mesh update
Time before mesh update
ExecutionTime = 4845.35 s  ClockTime = 4863 s

Time after mesh update
ExecutionTime = 4845.35 s  ClockTime = 4863 s

After mesh update: 0
diagonal:  Solving for rho, Initial residual = 0, Final residual = 0, No Iterations 0
PIMPLE: iteration 1
DILUPBiCGStab:  Solving for CH4, Initial residual = 0.001271003798, Final residual = 2.52155201e-05, No Iterations 2
DILUPBiCGStab:  Solving for Ux, Initial residual = 0.002257218335, Final residual = 3.08402411e-05, No Iterations 2
DILUPBiCGStab:  Solving for Ux, Initial residual = 0.001835771733, Final residual = 2.511967334e-05, No Iterations 2
DILUPBiCGStab:  Solving for Uy, Initial residual = 0.006229424456, Final residual = 9.800696579e-05, No Iterations 2
DICPCG:  Solving for p, Initial residual = 0.04747391369, Final residual = 9.099530977e-06, No Iterations 221
diagonal:  Solving for rho, Initial residual = 0, Final residual = 0, No Iterations 0
DILUPBiCGStab:  Solving for CH2, Initial residual = 0.003151013181, Final residual = 6.00691897e-05, No Iterations 2
time step continuity errors : sum local = 1.759493126e-09, global = 1.558754719e-13, cumulative = -2.632395648e-05
DILUPBiCGStab:  Solving for Uz, Initial residual = 0.01016548532, Final residual = 0.000466063784, No Iterations 1
DILUPBiCGStab:  Solving for Uy, Initial residual = 0.005034399978, Final residual = 7.808968588e-05, No Iterations 2
DILUPBiCGStab:  Solving for Uz, Initial residual = 0.008599598452, Final residual = 0.0001062142202, No Iterations 2
DILUPBiCGStab:  Solving for H2, Initial residual = 0.00166832268, Final residual = 6.160011357e-05, No Iterations 2
DILUPBiCGStab:  Solving for O2, Initial residual = 0.001926358619, Final residual = 4.477055195e-05, No Iterations 2
Before reaction->correct():
Time before reaction
ExecutionTime = 4845.79 s  ClockTime = 4865 s

Before reaction->correct():
Time before reaction
ExecutionTime = 4847.49 s  ClockTime = 4865 s

DILUPBiCGStab:  Solving for CO, Initial residual = 0.004653573431, Final residual = 0.000108033805, No Iterations 2
DICPCG:  Solving for p, Initial residual = 0.05428789672, Final residual = 9.365631894e-06, No Iterations 226
diagonal:  Solving for rho, Initial residual = 0, Final residual = 0, No Iterations 0
time step continuity errors : sum local = 1.82069685e-09, global = 1.772001726e-12, cumulative = -2.632394846e-05
ExecutionTime = 4848.4 s  ClockTime = 4865 s

ExecutionTime = 4847.68 s  ClockTime = 4865 s

DILUPBiCGStab:  Solving for CO2, Initial residual = 0.001583623877, Final residual = 3.230952727e-05, No Iterations 2
volFieldValue Qdot_volIntegrate write:
    volIntegrate(region0) of Qdot = 16.6292688

volFieldValue AFlame_volIntegrate write:
    volIntegrate(region0) of interfaceAreaFlame = 7.163979793e-05

    min/max/integ(Walls) = -128279.6268, 12.60344446, -4.761460163
Courant Number mean: 0.1527019488 max: 1.000230973
deltaT = 5.860022899e-05
---NormalisedGradT: min = min(normalisedGradT) [0 0 0 0 0 0 0] 3.604548848e-09   max = max(normalisedGradT) [0 0 0 0 0 0 0] 1
Time = 0.00847222

Before mesh update
Time before mesh update
ExecutionTime = 4847.83 s  ClockTime = 4866 s

Time after mesh update
ExecutionTime = 4847.83 s  ClockTime = 4866 s

After mesh update: 0
diagonal:  Solving for rho, Initial residual = 0, Final residual = 0, No Iterations 0
PIMPLE: iteration 1
DILUPBiCGStab:  Solving for H2O, Initial residual = 0.002004809353, Final residual = 5.772164183e-05, No Iterations 2
    min/max/integ(Walls) = -127800.4516, 12.41829693, -4.770134707
wallHeatFlux wallHeatFlux1 write:
    writing field wallHeatFlux
volFieldValue volFieldValue1 write:
    max(region0) of Qdot = 981496588.1

Courant Number mean: 0.1531955986 max: 1.001756139
deltaT = 5.849749926e-05
---NormalisedGradT: min = min(normalisedGradT) [0 0 0 0 0 0 0] 2.836148495e-08   max = max(normalisedGradT) [0 0 0 0 0 0 0] 1
Time = 0.00853072

Before mesh update
Time before mesh update
ExecutionTime = 4848.65 s  ClockTime = 4866 s

Time after mesh update
ExecutionTime = 4848.65 s  ClockTime = 4866 s

After mesh update: 0
diagonal:  Solving for rho, Initial residual = 0, Final residual = 0, No Iterations 0
PIMPLE: iteration 1
 In EEqn.H: min/max(T) = 299.7742322, 1755.772026
   Min Q:-26664948.16
   Max Q:980163114.3
  Before: min/max(he) = 1848.153858, 1907214.322
DILUPBiCGStab:  Solving for Ux, Initial residual = 0.00198299156, Final residual = 3.275026316e-05, No Iterations 2
DILUPBiCGStab:  Solving for Uy, Initial residual = 0.004594482586, Final residual = 6.200485874e-05, No Iterations 2
DILUPBiCGStab:  Solving for Ux, Initial residual = 0.002257218335, Final residual = 3.08402411e-05, No Iterations 2
DILUPBiCGStab:  Solving for Uz, Initial residual = 0.008922830465, Final residual = 0.0004064557719, No Iterations 1
DILUPBiCGStab:  Solving for h, Initial residual = 0.001895380383, Final residual = 5.540448292e-05, No Iterations 2
After: min/max(he) = 1848.182517, 1907490.989
In thermoCorrectByCantera.h
DILUPBiCGStab:  Solving for Uy, Initial residual = 0.006229424456, Final residual = 9.800696579e-05, No Iterations 2
DILUPBiCGStab:  Solving for Uz, Initial residual = 0.01016548532, Final residual = 0.000466063784, No Iterations 1
Before reaction->correct():
Time before reaction
ExecutionTime = 4849 s  ClockTime = 4867 s

Before bnds
Before patch loop
Ended thermoCorrect
min/max(T) = 299.7742574, 1753.672942
Min Q:-26664948.16
Max Q:980163114.3
Before reaction->correct():
Time before reaction
ExecutionTime = 4849.76 s  ClockTime = 4867 s

Time after reaction
ExecutionTime = 4862.66 s  ClockTime = 4868 s

Done reaction->correct():
DILUPBiCGStab:  Solving for CH4, Initial residual = 0.001269961893, Final residual = 2.523903166e-05, No Iterations 2
DILUPBiCGStab:  Solving for CH2, Initial residual = 0.003149878284, Final residual = 6.0100761e-05, No Iterations 2
DILUPBiCGStab:  Solving for H2, Initial residual = 0.001664977502, Final residual = 6.15288413e-05, No Iterations 2
DILUPBiCGStab:  Solving for O2, Initial residual = 0.001922505738, Final residual = 4.461374258e-05, No Iterations 2
DILUPBiCGStab:  Solving for CO, Initial residual = 0.004664694777, Final residual = 0.0001085421181, No Iterations 2
DICPCG:  Solving for p, Initial residual = 0.1211640076, Final residual = 0.001126159638, No Iterations 184
diagonal:  Solving for rho, Initial residual = 0, Final residual = 0, No Iterations 0
time step continuity errors : sum local = 2.154313603e-07, global = 8.808546652e-10, cumulative = -2.632307562e-05
DILUPBiCGStab:  Solving for CO2, Initial residual = 0.001582211917, Final residual = 3.227536869e-05, No Iterations 2
DILUPBiCGStab:  Solving for H2O, Initial residual = 0.002000878921, Final residual = 5.751377876e-05, No Iterations 2
 In EEqn.H: min/max(T) = 299.7742574, 1753.672942
   Min Q:-26870525.66
   Max Q:980978175.7
  Before: min/max(he) = 1848.182517, 1907490.989
DILUPBiCGStab:  Solving for h, Initial residual = 0.001893134797, Final residual = 5.494590471e-05, No Iterations 2
After: min/max(he) = 1848.153495, 1908210.88
In thermoCorrectByCantera.h
Before bnds
Before patch loop
Ended thermoCorrect
min/max(T) = 299.7742319, 1752.887061
Min Q:-26870525.66
Max Q:980978175.7
Time after reaction
ExecutionTime = 4854.15 s  ClockTime = 4872 s

Done reaction->correct():
Time after reaction
ExecutionTime = 4852.6 s  ClockTime = 4872 s

Done reaction->correct():
DILUPBiCGStab:  Solving for CH4, Initial residual = 0.001269961893, Final residual = 2.523903166e-05, No Iterations 2
DILUPBiCGStab:  Solving for CH4, Initial residual = 0.001271003798, Final residual = 2.52155201e-05, No Iterations 2
DILUPBiCGStab:  Solving for CH2, Initial residual = 0.003149878284, Final residual = 6.0100761e-05, No Iterations 2
DILUPBiCGStab:  Solving for CH2, Initial residual = 0.003151013181, Final residual = 6.00691897e-05, No Iterations 2
DILUPBiCGStab:  Solving for H2, Initial residual = 0.001664977502, Final residual = 6.15288413e-05, No Iterations 2
DILUPBiCGStab:  Solving for H2, Initial residual = 0.00166832268, Final residual = 6.160011357e-05, No Iterations 2
DILUPBiCGStab:  Solving for O2, Initial residual = 0.001922505738, Final residual = 4.461374258e-05, No Iterations 2
Time after reaction
ExecutionTime = 4855.76 s  ClockTime = 4873 s

Done reaction->correct():
DILUPBiCGStab:  Solving for O2, Initial residual = 0.001926358619, Final residual = 4.477055195e-05, No Iterations 2
DICPCG:  Solving for p, Initial residual = 0.0628208452, Final residual = 9.961139437e-06, No Iterations 231
diagonal:  Solving for rho, Initial residual = 0, Final residual = 0, No Iterations 0
time step continuity errors : sum local = 1.880288142e-09, global = -4.729646188e-12, cumulative = -2.632308035e-05
ExecutionTime = 4855.92 s  ClockTime = 4874 s

DILUPBiCGStab:  Solving for CO, Initial residual = 0.004664694777, Final residual = 0.0001085421181, No Iterations 2
DILUPBiCGStab:  Solving for CO, Initial residual = 0.004653573431, Final residual = 0.000108033805, No Iterations 2
DILUPBiCGStab:  Solving for CH4, Initial residual = 0.001275062672, Final residual = 2.520291162e-05, No Iterations 2
    min/max/integ(Walls) = -127325.0403, 12.39887734, -4.778997374
Courant Number mean: 0.1534154423 max: 1.001461651
deltaT = 5.841212113e-05
Time after reaction
ExecutionTime = 4857.18 s  ClockTime = 4874 s

Done reaction->correct():
---NormalisedGradT: min = min(normalisedGradT) [0 0 0 0 0 0 0] 7.262248129e-08   max = max(normalisedGradT) [0 0 0 0 0 0 0] 1
Time = 0.00858913

Before mesh update
Time before mesh update
ExecutionTime = 4856.19 s  ClockTime = 4874 s

Time after mesh update
ExecutionTime = 4856.19 s  ClockTime = 4874 s

After mesh update: 0
diagonal:  Solving for rho, Initial residual = 0, Final residual = 0, No Iterations 0
PIMPLE: iteration 1
DILUPBiCGStab:  Solving for CO2, Initial residual = 0.001582211917, Final residual = 3.227536869e-05, No Iterations 2
DILUPBiCGStab:  Solving for CO2, Initial residual = 0.001583623877, Final residual = 3.230952727e-05, No Iterations 2
DILUPBiCGStab:  Solving for CH2, Initial residual = 0.003166302533, Final residual = 6.050099911e-05, No Iterations 2
DILUPBiCGStab:  Solving for CH4, Initial residual = 0.001271003798, Final residual = 2.52155201e-05, No Iterations 2
DILUPBiCGStab:  Solving for H2O, Initial residual = 0.002000878921, Final residual = 5.751377876e-05, No Iterations 2
DILUPBiCGStab:  Solving for H2O, Initial residual = 0.002004809353, Final residual = 5.772164183e-05, No Iterations 2
DILUPBiCGStab:  Solving for Ux, Initial residual = 0.001835771733, Final residual = 2.511967334e-05, No Iterations 2
DILUPBiCGStab:  Solving for H2, Initial residual = 0.001674825288, Final residual = 6.147083568e-05, No Iterations 2
DILUPBiCGStab:  Solving for CH2, Initial residual = 0.003151013181, Final residual = 6.00691897e-05, No Iterations 2
 In EEqn.H: min/max(T) = 299.7742574, 1753.672942
DILUPBiCGStab:  Solving for Uy, Initial residual = 0.005034399978, Final residual = 7.808968588e-05, No Iterations 2
   Min Q:-26870525.66
   Max Q:980978175.7
 In EEqn.H: min/max(T) = 299.7742322, 1755.772026
  Before: min/max(he) = 1848.182517, 1907490.989
   Min Q:-26664948.16
   Max Q:980163114.3
  Before: min/max(he) = 1848.153858, 1907214.322
DILUPBiCGStab:  Solving for Uz, Initial residual = 0.008599598452, Final residual = 0.0001062142202, No Iterations 2
DILUPBiCGStab:  Solving for O2, Initial residual = 0.001935825964, Final residual = 4.506741769e-05, No Iterations 2
DICPCG:  Solving for p, Initial residual = 0.09329288969, Final residual = 0.0008028930066, No Iterations 176
diagonal:  Solving for rho, Initial residual = 0, Final residual = 0, No Iterations 0
time step continuity errors : sum local = 1.51503613e-07, global = 8.914275102e-11, cumulative = -2.632299121e-05
DILUPBiCGStab:  Solving for H2, Initial residual = 0.00166832268, Final residual = 6.160011357e-05, No Iterations 2
DILUPBiCGStab:  Solving for h, Initial residual = 0.001893134797, Final residual = 5.494590471e-05, No Iterations 2
After: min/max(he) = 1848.153495, 1908210.88
In thermoCorrectByCantera.h
DILUPBiCGStab:  Solving for h, Initial residual = 0.001895380383, Final residual = 5.540448292e-05, No Iterations 2
After: min/max(he) = 1848.182517, 1907490.989
In thermoCorrectByCantera.h
DILUPBiCGStab:  Solving for CO, Initial residual = 0.00470524794, Final residual = 0.0001146300042, No Iterations 2
DILUPBiCGStab:  Solving for O2, Initial residual = 0.001926358619, Final residual = 4.477055195e-05, No Iterations 2
Before reaction->correct():
Time before reaction
ExecutionTime = 4859.09 s  ClockTime = 4877 s

Before bnds
Before patch loop
Ended thermoCorrect
min/max(T) = 299.7742319, 1752.887061
Min Q:-26870525.66
Max Q:980978175.7
DILUPBiCGStab:  Solving for CO2, Initial residual = 0.001592000162, Final residual = 3.250915982e-05, No Iterations 2
Before bnds
Before patch loop
Ended thermoCorrect
min/max(T) = 299.7742574, 1753.672942
Min Q:-26664948.16
Max Q:980163114.3
DILUPBiCGStab:  Solving for CO, Initial residual = 0.004653573431, Final residual = 0.000108033805, No Iterations 2
DILUPBiCGStab:  Solving for H2O, Initial residual = 0.002013935641, Final residual = 5.811214649e-05, No Iterations 2
DILUPBiCGStab:  Solving for CO2, Initial residual = 0.001583623877, Final residual = 3.230952727e-05, No Iterations 2
 In EEqn.H: min/max(T) = 299.7739465, 1757.898479
   Min Q:-26640114.42
   Max Q:981496588.1
  Before: min/max(he) = 1847.828687, 1907324.682
DILUPBiCGStab:  Solving for H2O, Initial residual = 0.002004809353, Final residual = 5.772164183e-05, No Iterations 2
 In EEqn.H: min/max(T) = 299.7742322, 1755.772026
   Min Q:-26664948.16
   Max Q:980163114.3
  Before: min/max(he) = 1848.153858, 1907214.322
DILUPBiCGStab:  Solving for h, Initial residual = 0.001905136056, Final residual = 5.498905851e-05, No Iterations 2
After: min/max(he) = 1848.153858, 1907214.322
In thermoCorrectByCantera.h
Before bnds
Before patch loop
Ended thermoCorrect
min/max(T) = 299.7742322, 1755.772026
Min Q:-26640114.42
Max Q:981496588.1
DILUPBiCGStab:  Solving for h, Initial residual = 0.001895380383, Final residual = 5.540448292e-05, No Iterations 2
After: min/max(he) = 1848.182517, 1907490.989
In thermoCorrectByCantera.h
Before bnds
Before patch loop
Ended thermoCorrect
min/max(T) = 299.7742574, 1753.672942
Min Q:-26664948.16
Max Q:980163114.3
